version 2
run Default-0-20240604-09:49:51-5052
attr configname Default
attr datetime 20240604-09:49:51
attr experiment Default
attr inifile omnetpp.ini
attr iterationvars ""
attr iterationvarsf ""
attr measurement ""
attr network paris
attr processid 5052
attr repetition 0
attr replication #0
attr resultdir results
attr runnumber 0
attr seedset 0
param **.debug false
param **.coreDebug false
param *.playgroundSizeX 4953m
param *.playgroundSizeY 2000m
param *.playgroundSizeZ 50m
param *.annotations.draw true
param *.obstacles.obstacles "xmldoc(\"config.xml\", \"//AnalogueModel[@type='SimpleObstacleShadowing']/obstacles\")"
param *.manager.updateInterval 1s
param *.manager.host "\"localhost\""
param *.manager.port 9999
param *.manager.moduleType "\"org.car2x.veins.nodes.Car\""
param *.manager.moduleName "\"node\""
param *.manager.moduleDisplayString "\"\""
param *.manager.autoShutdown true
param *.manager.launchConfig "xmldoc(\"paris.launchd.xml\")"
param *.rsu[0].mobility.x 0
param *.rsu[0].mobility.y 0
param *.rsu[0].mobility.z 3
param *.rsu[*].applType "\"TraCIDemoRSU11p\""
param *.rsu[*].appl.headerLength "80 bit"
param *.rsu[*].appl.sendBeacons false
param *.rsu[*].appl.dataOnSch false
param *.rsu[*].appl.beaconInterval 1s
param *.rsu[*].appl.beaconUserPriority 7
param *.rsu[*].appl.dataUserPriority 5
param *.rsu[*].nic.phy80211p.antennaOffsetZ "0 m"
param *.connectionManager.sendDirect true
param *.connectionManager.maxInterfDist 2600m
param *.connectionManager.drawMaxIntfDist false
param *.**.nic.mac1609_4.useServiceChannel false
param *.**.nic.mac1609_4.txPower 20mW
param *.**.nic.mac1609_4.bitrate 6Mbps
param *.**.nic.phy80211p.minPowerLevel -110dBm
param *.**.nic.phy80211p.useNoiseFloor true
param *.**.nic.phy80211p.noiseFloor -98dBm
param *.**.nic.phy80211p.decider "xmldoc(\"config.xml\")"
param *.**.nic.phy80211p.analogueModels "xmldoc(\"config.xml\")"
param *.**.nic.phy80211p.usePropagationDelay true
param *.**.nic.phy80211p.antenna "xmldoc(\"antenna.xml\", \"/root/Antenna[@id='monopole']\")"
param *.node[*].nic.phy80211p.antennaOffsetY "0 m"
param *.node[*].nic.phy80211p.antennaOffsetZ "1.895 m"
param *.node[*].applType "\"MyVeinsApp\""
param *.node[*].appl.headerLength "80 bit"
param *.node[*].appl.sendBeacons false
param *.node[*].appl.dataOnSch false
param *.node[*].appl.beaconInterval 1s
param *.node[*].veinsmobility.x 0
param *.node[*].veinsmobility.y 0
param *.node[*].veinsmobility.z 0
param *.node[*].veinsmobility.setHostSpeed false
param *.node[*0].veinsmobility.accidentCount 1
param *.node[*0].veinsmobility.accidentStart 73s
param *.node[*0].veinsmobility.accidentDuration 50s

vector 0 paris.node[0].veinsmobility posx ETV
vector 1 paris.node[0].veinsmobility posy ETV
vector 2 paris.node[1].veinsmobility posx ETV
vector 3 paris.node[1].veinsmobility posy ETV
vector 4 paris.node[2].veinsmobility posx ETV
vector 5 paris.node[2].veinsmobility posy ETV
vector 6 paris.node[3].veinsmobility posx ETV
vector 7 paris.node[3].veinsmobility posy ETV
vector 8 paris.node[4].veinsmobility posx ETV
vector 9 paris.node[4].veinsmobility posy ETV
vector 10 paris.node[5].veinsmobility posx ETV
vector 11 paris.node[5].veinsmobility posy ETV
vector 12 paris.node[6].veinsmobility posx ETV
vector 13 paris.node[6].veinsmobility posy ETV
vector 14 paris.node[7].veinsmobility posx ETV
vector 15 paris.node[7].veinsmobility posy ETV
vector 16 paris.node[8].veinsmobility posx ETV
vector 17 paris.node[8].veinsmobility posy ETV
vector 18 paris.node[9].veinsmobility posx ETV
vector 19 paris.node[9].veinsmobility posy ETV
vector 20 paris.node[0].veinsmobility speed ETV
vector 21 paris.node[1].veinsmobility speed ETV
vector 22 paris.node[2].veinsmobility speed ETV
vector 23 paris.node[3].veinsmobility speed ETV
vector 24 paris.node[4].veinsmobility speed ETV
vector 25 paris.node[5].veinsmobility speed ETV
vector 26 paris.node[6].veinsmobility speed ETV
vector 27 paris.node[7].veinsmobility speed ETV
vector 28 paris.node[8].veinsmobility speed ETV
vector 29 paris.node[9].veinsmobility speed ETV
vector 30 paris.node[0].veinsmobility acceleration ETV
vector 31 paris.node[0].veinsmobility co2emission ETV
vector 32 paris.node[1].veinsmobility acceleration ETV
vector 33 paris.node[1].veinsmobility co2emission ETV
vector 34 paris.node[2].veinsmobility acceleration ETV
vector 35 paris.node[2].veinsmobility co2emission ETV
vector 36 paris.node[3].veinsmobility acceleration ETV
vector 37 paris.node[3].veinsmobility co2emission ETV
vector 38 paris.node[4].veinsmobility acceleration ETV
vector 39 paris.node[4].veinsmobility co2emission ETV
vector 40 paris.node[5].veinsmobility acceleration ETV
vector 41 paris.node[5].veinsmobility co2emission ETV
vector 42 paris.node[6].veinsmobility acceleration ETV
vector 43 paris.node[6].veinsmobility co2emission ETV
vector 44 paris.node[7].veinsmobility acceleration ETV
vector 45 paris.node[7].veinsmobility co2emission ETV
vector 46 paris.node[8].veinsmobility acceleration ETV
vector 47 paris.node[8].veinsmobility co2emission ETV
vector 48 paris.node[9].veinsmobility acceleration ETV
vector 49 paris.node[9].veinsmobility co2emission ETV
41	4	3	3.8618562342595
41	5	4	5.2579454806313
41	6	5	6.156439118042
41	7	6	0.973
41	8	7	0.973
41	9	8	6.2375936645016
41	10	9	2.3122380974894
41	11	10	1.4536347399955
41	12	11	1.7781323802191
41	13	12	0.973
41	14	13	6.06093803388
41	15	14	3.9486875278632
41	16	15	1.5305591586844
41	17	16	1.652285082826
41	18	17	1.6095979612674
41	19	18	1.8275710862426
41	20	19	1.7207842731064
41	21	20	1.6173953588599
41	22	21	1.5240791732949
41	23	22	1.732062520482
41	24	23	1.514942090554
41	25	24	1.6730984662811
41	26	25	1.5947283194228
41	27	26	1.7604830897238
41	28	27	1.6356127336876
41	29	28	1.8150282187479
41	30	29	1.5990091204762
41	31	30	1.4441351979675
41	32	31	1.875785157328
41	33	32	1.5273910631138
41	34	33	1.551403642551
41	35	34	1.6693901391071
41	36	35	1.8475767305427
41	37	36	1.630102325093
41	38	37	1.549086397579
41	39	38	1.7603655491536
41	40	39	0.973
41	41	40	6.6561908451735
41	42	41	3.5896582896258
41	43	42	1.6891554585443
41	44	43	1.6971740728093
41	45	44	1.754559184151
41	46	45	1.6828952543668
41	47	46	1.4457902567914
41	48	47	1.6721924752549
41	49	48	1.8362114591737
41	50	49	1.6372971067945
40	4	3	1.8140409602039
40	5	4	2.0244481058535
40	6	5	1.9447476812905
40	7	6	-0.694032434789
40	8	7	-1.6104094505762
40	9	8	2.0435608249623
40	10	9	0.28256407754173
40	11	10	-0.085594608716201
40	12	11	0.053527064621449
40	13	12	-3.1510496541207
40	14	13	2.1595928903064
40	15	14	0.99220977855159
40	16	15	-0.052192716905848
40	17	16	0.00071572527755137
40	18	17	-0.01732330085477
40	19	18	0.074647807471921
40	20	19	0.027535361051559
40	21	20	-0.016524893615861
40	22	21	-0.055368447736837
40	23	22	0.033743564407342
40	24	23	-0.058693112030159
40	25	24	0.0098363407189019
40	26	25	-0.023553503919391
40	27	26	0.046976076078135
40	28	27	-0.0069800610933459
40	29	28	0.068242607214488
40	30	29	-0.024169995128176
40	31	30	-0.089095742800273
40	32	31	0.09518809947418
40	33	32	-0.053867948404514
40	34	33	-0.042277548701968
40	35	34	0.008901690323837
40	36	35	0.083170264961664
40	37	36	-0.010472342488356
40	38	37	-0.044308990177234
40	39	38	0.0458171137725
40	40	39	-3.3753079657705
40	41	40	2.4314590713242
40	42	41	0.84841727987221
40	43	42	0.017637720885688
40	44	43	0.020436091714073
40	45	44	0.043800106735434
40	46	45	0.012352932570503
40	47	46	-0.088208908010275
40	48	47	0.010285741670524
40	49	48	0.078638387897517
40	50	49	-0.0071687382040544
25	3	2	3.820885023086
25	4	3	5.6349259832899
25	5	4	7.6593740891434
25	6	5	9.6041217704339
25	7	6	8.9100893356449
25	8	7	7.2996798850687
25	9	8	9.343240710031
25	10	9	9.6258047875727
25	11	10	9.5402101788565
25	12	11	9.593737243478
25	13	12	6.4426875893573
25	14	13	8.6022804796637
25	15	14	9.5944902582153
25	16	15	9.5422975413094
25	17	16	9.543013266587
25	18	17	9.5256899657322
25	19	18	9.6003377732041
25	20	19	9.6278731342557
25	21	20	9.6113482406398
25	22	21	9.555979792903
25	23	22	9.5897233573103
25	24	23	9.5310302452802
25	25	24	9.5408665859991
25	26	25	9.5173130820797
25	27	26	9.5642891581578
25	28	27	9.5573090970645
25	29	28	9.6255517042789
25	30	29	9.6013817091508
25	31	30	9.5122859663505
25	32	31	9.6074740658247
25	33	32	9.5536061174202
25	34	33	9.5113285687182
25	35	34	9.520230259042
25	36	35	9.6034005240037
25	37	36	9.5929281815153
25	38	37	9.5486191913381
25	39	38	9.5944363051106
25	40	39	6.2191283393401
25	41	40	8.6505874106643
25	42	41	9.4990046905366
25	43	42	9.5166424114222
25	44	43	9.5370785031363
25	45	44	9.5808786098717
25	46	45	9.5932315424423
25	47	46	9.505022634432
25	48	47	9.5153083761025
25	49	48	9.593946764
25	50	49	9.586778025796
11	2	1	1386.7429677906
11	3	2	1387.9419299736
11	4	3	1389.8476676372
11	5	4	1392.5101531894
11	6	5	1395.9875226508
11	7	6	1399.7215838599
11	8	7	1402.5538802659
11	9	8	1415.5318880378
11	10	9	1422.2807700104
11	11	10	1429.0151560942
11	12	11	1435.745197033
11	13	12	1441.6046235388
11	14	13	1437.0916406248
11	15	14	1430.9858794678
11	16	15	1424.7665521298
11	17	16	1418.5602975632
11	18	17	1412.3406278268
11	19	18	1406.1191960014
11	20	19	1399.8990763797
11	21	20	1395.1319635495
11	22	21	1394.4144014273
11	23	22	1392.3039161722
11	24	23	1389.0152641087
11	25	24	1369.0031871294
11	26	25	1365.3793928645
11	27	26	1352.3388243665
11	28	27	1348.7264945669
11	29	28	1347.06637778
11	30	29	1347.4876758086
11	31	30	1350.178274069
11	32	31	1354.8723431971
11	33	32	1355.6972438929
11	34	33	1352.8557226987
11	35	34	1349.9987837463
11	36	35	1347.1414084486
11	37	36	1344.27887727
11	38	37	1341.4154685405
11	39	38	1338.5501158899
11	40	39	1336.1251424327
11	41	40	1332.4546871838
11	42	41	1331.0355157973
11	43	42	1325.5150780692
11	44	43	1322.7514304937
11	45	44	1319.9857422174
11	46	45	1317.2651586791
11	47	46	1314.5954693589
11	48	47	1311.8300689651
11	49	48	1309.0214629139
11	50	49	1306.1978594193
10	2	1	4151.5695913229
10	3	2	4149.5644889781
10	4	3	4146.280006026
10	5	4	4141.6912902897
10	6	5	4135.6981460432
10	7	6	4129.2626011003
10	8	7	4124.3812213395
10	9	8	4124.129489105
10	10	9	4127.7645530208
10	11	10	4131.3918092015
10	12	11	4135.0167250124
10	13	12	4138.1707955417
10	14	13	4150.0398961603
10	15	14	4153.2707549929
10	16	15	4156.5617072831
10	17	16	4159.8457421262
10	18	17	4163.1368755962
10	19	18	4166.4289414743
10	20	19	4169.4790898801
10	21	20	4181.1524093434
10	22	21	4187.0460313087
10	23	22	4192.5830682264
10	24	23	4197.52573543
10	25	24	4205.4417397058
10	26	25	4204.7736866263
10	27	26	4196.9188243665
10	28	27	4190.5119155619
10	29	28	4183.3392810587
10	30	29	4176.0270124771
10	31	30	4169.1932081882
10	32	31	4163.5324270282
10	33	32	4147.5905093939
10	34	33	4139.9237355325
10	35	34	4132.2485344164
10	36	35	4124.5721610534
10	37	36	4116.8819363539
10	38	37	4109.1893541032
10	39	38	4101.4915494851
10	40	39	4094.9553018973
10	41	40	4080.2828637182
10	42	41	4076.4003338683
10	43	42	4061.2712878866
10	44	43	4053.6776000287
10	45	44	4046.0860679232
10	46	45	4038.4763646474
10	47	46	4030.8578524391
10	48	47	4023.2534319323
10	49	48	4015.699479638
10	50	49	4008.1051906184
45	4	3	4.6123624765714
45	5	4	1.5640509822379
45	6	5	1.4271976267438
45	7	6	1.3836341147859
45	8	7	1.5011609368411
45	9	8	1.5158065487618
45	10	9	1.4036537412196
45	11	10	1.4043358389265
45	12	11	1.3730473101628
45	13	12	1.4120952381424
45	14	13	1.4311812225645
45	15	14	1.5389808869555
45	16	15	1.3167889727779
45	17	16	1.4192784395309
45	18	17	1.6386002040574
45	19	18	1.2395922816799
45	20	19	1.534600067109
45	21	20	1.3535984992698
45	22	21	1.6211779615011
45	23	22	1.3275116575456
45	24	23	1.4000016718777
45	25	24	1.5328318523546
45	26	25	1.3678575664857
45	27	26	1.3998959003197
45	28	27	1.5820222925045
45	29	28	1.3282886701118
45	30	29	1.3851232263499
45	31	30	1.410194251076
45	32	31	1.444085137641
45	33	32	1.4427060755164
45	34	33	1.5573504405058
45	35	34	1.3389509883209
45	36	35	1.5846379811768
45	37	36	1.3418905858486
45	38	37	1.4677705427067
45	39	38	1.4326262999897
45	40	39	1.4393387330271
45	41	40	1.5049723461568
45	42	41	1.3731468529608
45	43	42	1.3864191643425
45	44	43	1.4092951648886
45	45	44	1.4157560974093
45	46	45	1.59880949402
45	47	46	1.395550057894
45	48	47	1.3017944302591
45	49	48	1.5445132522013
45	50	49	1.5263415434149
45	51	50	0.973
45	52	51	0.973
45	53	52	0.973
45	54	53	0.973
45	55	54	0.973
45	56	55	0.973
45	57	56	0.973
45	58	57	0.973
45	59	58	0.973
45	60	59	0.973
45	61	60	0.973
45	62	61	0.973
45	63	62	0.973
45	64	63	0.973
45	65	64	0.973
45	66	65	0.973
45	67	66	0.973
45	68	67	0.973
45	69	68	0.973
45	70	69	0.973
45	71	70	0.973
45	72	71	0.973
45	73	72	0.973
45	74	73	0.973
45	76	74	0.973
45	77	75	0.973
45	78	76	0.973
45	79	77	0.973
45	80	78	0.973
45	81	79	0.973
45	82	80	0.973
45	83	81	0.973
45	84	82	0.973
45	85	83	0.973
45	86	84	0.973
45	87	85	0.973
45	88	86	0.973
45	89	87	0.973
45	90	88	0.973
45	91	89	0.973
45	92	90	0.973
45	93	91	0.973
45	94	92	0.973
45	95	93	0.973
45	96	94	0.973
45	97	95	0.973
45	98	96	0.973
45	99	97	0.973
45	100	98	0.973
45	101	99	0.973
45	102	100	0.973
45	103	101	0.973
45	104	102	0.973
45	105	103	0.973
45	106	104	0.973
45	107	105	0.973
45	108	106	0.973
45	109	107	0.973
45	110	108	0.973
45	111	109	0.973
45	112	110	0.973
45	113	111	2.7241568704964
45	114	112	2.8774736483469
45	115	113	4.6078951324708
45	116	114	1.5738638221853
45	117	115	1.3557695615922
45	118	116	1.435568015282
45	119	117	1.6121551109051
45	120	118	1.4086949467445
45	121	119	1.3977987478179
45	122	120	1.5105502569125
45	123	121	1.3606266120246
45	124	122	1.4844882801393
45	125	123	1.4047386619204
45	127	124	1.386105329877
45	128	125	1.4428487750394
45	129	126	1.5679201506291
45	130	127	1.2528565350517
45	131	128	1.4368196981427
45	132	129	1.4795329405175
45	133	130	1.4255882536824
45	134	131	1.4900537485971
45	135	132	1.4715701187751
45	136	133	1.3388366571875
45	137	134	1.471019634573
45	138	135	1.4915200125261
45	139	136	1.4011131456544
45	140	137	1.4529913549627
45	141	138	1.3468266406794
45	142	139	1.5321591003186
45	143	140	1.4061529141693
44	4	3	2.1166601561685
44	5	4	0.082865986044871
44	6	5	-0.0067921259417201
44	7	6	-0.034295853832736
44	8	7	0.041526038979645
44	9	8	0.04886354038259
44	10	9	-0.023430804838426
44	11	10	-0.022200125905219
44	12	11	-0.041406172467395
44	13	12	-0.015044703162276
44	14	13	-0.0023095594183538
44	15	14	0.065862295143306
44	16	15	-0.077809548350052
44	17	16	-0.0093952515977431
44	18	17	0.12873915451113
44	19	18	-0.1288959702407
44	20	19	0.064127956053708
44	21	20	-0.053401518987958
44	22	21	0.11742879298283
44	23	22	-0.071982830401975
44	24	23	-0.023375911246985
44	25	24	0.061492180505302
44	26	25	-0.045164292932022
44	27	26	-0.023202391827945
44	28	27	0.092433112291619
44	29	28	-0.07122021196643
44	30	29	-0.032600357132032
44	31	30	-0.015399279303383
44	32	31	0.0068669581739229
44	33	32	0.0057209120644259
44	34	33	0.077800189338159
44	35	34	-0.06356917811092
44	36	35	0.094051901719067
44	37	36	-0.062542525122407
44	38	37	0.019588372481521
44	39	38	-0.003370894703548
44	40	39	0.0010021265689284
44	41	40	0.042208842376712
44	42	41	-0.042491270056925
44	43	42	-0.032665488505736
44	44	43	-0.016936017645057
44	45	44	-0.01220207267208
44	46	45	0.10351377756801
44	47	46	-0.028231943675783
44	48	47	-0.087534908964298
44	49	48	0.070325783181469
44	50	49	0.055708453597036
44	51	50	-1.8629497426943
44	52	51	-4.4576063890349
44	53	52	-0.044686557706551
44	54	53	0
44	55	54	0
44	56	55	0
44	57	56	0
44	58	57	0
44	59	58	0
44	60	59	0
44	61	60	0
44	62	61	0
44	63	62	0
44	64	63	0
44	65	64	0
44	66	65	0
44	67	66	0
44	68	67	0
44	69	68	0
44	70	69	0
44	71	70	0
44	72	71	0
44	73	72	0
44	74	73	0
44	76	74	0
44	77	75	0
44	78	76	0
44	79	77	0
44	80	78	0
44	81	79	0
44	82	80	0
44	83	81	0
44	84	82	0
44	85	83	0
44	86	84	0
44	87	85	0
44	88	86	0
44	89	87	0
44	90	88	0
44	91	89	0
44	92	90	0
44	93	91	0
44	94	92	0
44	95	93	0
44	96	94	0
44	97	95	0
44	98	96	0
44	99	97	0
44	100	98	0
44	101	99	0
44	102	100	0
44	103	101	0
44	104	102	0
44	105	103	0
44	106	104	0
44	107	105	0
44	108	106	0
44	109	107	0
44	110	108	0
44	111	109	0
44	112	110	0
44	113	111	2.4887110232154
44	114	112	1.5910760254553
44	115	113	2.1244589868328
44	116	114	0.090420150175798
44	117	115	-0.051753521834034
44	118	116	0.0012360955402251
44	119	117	0.11215271207038
44	120	118	-0.019954432507511
44	121	119	-0.026180980924983
44	122	120	0.045838959568647
44	123	121	-0.050480512580835
44	124	122	0.029726816765033
44	125	123	-0.021736503632273
44	127	124	-0.032874215885531
44	128	125	0.0044373686448678
44	129	126	0.082682423125952
44	130	127	-0.12024703716394
44	131	128	0.0018612320721152
44	132	129	0.028950977879576
44	133	130	-0.0064556027157234
44	134	131	0.034645484578796
44	135	132	0.021568854264915
44	136	133	-0.063634218499065
44	137	134	0.022936970547307
44	138	135	0.034907341380604
44	139	136	-0.023597532031126
44	140	137	0.010164970993064
44	141	138	-0.057937583113089
44	142	139	0.062034096184652
44	143	140	-0.02006940290099
27	3	2	4.1159273683131
27	4	3	6.2325875244816
27	5	4	6.3154535105264
27	6	5	6.3086613845847
27	7	6	6.274365530752
27	8	7	6.3158915697316
27	9	8	6.3647551101142
27	10	9	6.3413243052758
27	11	10	6.3191241793706
27	12	11	6.2777180069032
27	13	12	6.2626733037409
27	14	13	6.2603637443226
27	15	14	6.3262260394659
27	16	15	6.2484164911158
27	17	16	6.2390212395181
27	18	17	6.3677603940292
27	19	18	6.2388644237885
27	20	19	6.3029923798422
27	21	20	6.2495908608542
27	22	21	6.3670196538371
27	23	22	6.2950368234351
27	24	23	6.2716609121881
27	25	24	6.3331530926934
27	26	25	6.2879887997614
27	27	26	6.2647864079334
27	28	27	6.3572195202251
27	29	28	6.2859993082586
27	30	29	6.2533989511266
27	31	30	6.2379996718232
27	32	31	6.2448666299971
27	33	32	6.2505875420616
27	34	33	6.3283877313997
27	35	34	6.2648185532888
27	36	35	6.3588704550079
27	37	36	6.2963279298855
27	38	37	6.315916302367
27	39	38	6.3125454076634
27	40	39	6.3135475342324
27	41	40	6.3557563766091
27	42	41	6.3132651065522
27	43	42	6.2805996180464
27	44	43	6.2636636004014
27	45	44	6.2514615277293
27	46	45	6.3549753052973
27	47	46	6.3267433616215
27	48	47	6.2392084526572
27	49	48	6.3095342358387
27	50	49	6.3652426894357
27	51	50	4.5022929467414
27	52	51	0.044686557706551
27	53	52	0
27	54	53	0
27	55	54	0
27	56	55	0
27	57	56	0
27	58	57	0
27	59	58	0
27	60	59	0
27	61	60	0
27	62	61	0
27	63	62	0
27	64	63	0
27	65	64	0
27	66	65	0
27	67	66	0
27	68	67	0
27	69	68	0
27	70	69	0
27	71	70	0
27	72	71	0
27	73	72	0
27	74	73	0
27	76	74	0
27	77	75	0
27	78	76	0
27	79	77	0
27	80	78	0
27	81	79	0
27	82	80	0
27	83	81	0
27	84	82	0
27	85	83	0
27	86	84	0
27	87	85	0
27	88	86	0
27	89	87	0
27	90	88	0
27	91	89	0
27	92	90	0
27	93	91	0
27	94	92	0
27	95	93	0
27	96	94	0
27	97	95	0
27	98	96	0
27	99	97	0
27	100	98	0
27	101	99	0
27	102	100	0
27	103	101	0
27	104	102	0
27	105	103	0
27	106	104	0
27	107	105	0
27	108	106	0
27	109	107	0
27	110	108	0
27	111	109	0
27	112	110	0
27	113	111	2.4887110232154
27	114	112	4.0797870486707
27	115	113	6.2042460355035
27	116	114	6.2946661856793
27	117	115	6.2429126638452
27	118	116	6.2441487593854
27	119	117	6.3563014714558
27	120	118	6.3363470389483
27	121	119	6.3101660580233
27	122	120	6.356005017592
27	123	121	6.3055245050111
27	124	122	6.3352513217762
27	125	123	6.3135148181439
27	127	124	6.2806406022584
27	128	125	6.2850779709032
27	129	126	6.3677603940292
27	130	127	6.2475133568653
27	131	128	6.2493745889374
27	132	129	6.2783255668169
27	133	130	6.2718699641012
27	134	131	6.30651544868
27	135	132	6.3280843029449
27	136	133	6.2644500844459
27	137	134	6.2873870549932
27	138	135	6.3222943963738
27	139	136	6.2986968643427
27	140	137	6.3088618353357
27	141	138	6.2509242522226
27	142	139	6.3129583484073
27	143	140	6.2928889455063
15	2	1	418.27264868648
15	3	2	416.60876288878
15	4	3	413.72175202361
15	5	4	410.27489482543
15	6	5	406.81741157661
15	7	6	403.37075788524
15	8	7	399.92655559033
15	9	8	396.4707873563
15	10	9	392.94998758938
15	11	10	389.39809276831
15	12	11	385.83194027927
15	13	12	382.27815672626
15	14	13	378.72494450542
15	15	14	375.16058154633
15	16	15	371.6005126907
15	17	16	368.14214348462
15	18	17	364.72467164827
15	19	18	355.17357621331
15	20	19	354.9827195431
15	21	20	354.79142409137
15	22	21	354.60073890466
15	23	22	354.41022902632
15	24	23	354.21950418227
15	25	24	354.02868370282
15	26	25	353.83837663511
15	27	26	353.64710083975
15	28	27	353.45630168255
15	29	28	353.26579912085
15	30	29	353.0755725023
15	31	30	352.8848997158
15	32	31	352.69384481876
15	33	32	352.50320771251
15	34	33	352.31241068687
15	35	34	352.12214308521
15	36	35	351.93057268141
15	37	36	351.74017504912
15	38	37	351.54927726435
15	39	38	351.3585756471
15	40	39	356.20078450386
15	41	40	361.37371113537
15	42	41	366.54738956407
15	43	42	371.7296285153
15	44	43	376.89986853699
15	45	44	382.05830828699
15	46	45	387.24672897427
15	47	46	392.42285652061
15	48	47	397.5877005565
15	49	48	402.75387423777
15	50	49	407.92342261611
15	51	50	412.69491871141
15	52	51	414.35966850099
15	53	52	414.35968680142
15	54	53	414.35968680142
15	55	54	414.35968680142
15	56	55	414.35968680142
15	57	56	414.35968680142
15	58	57	414.35968680142
15	59	58	414.35968680142
15	60	59	414.35968680142
15	61	60	414.35968680142
15	62	61	414.35968680142
15	63	62	414.35968680142
15	64	63	414.35968680142
15	65	64	414.35968680142
15	66	65	414.35968680142
15	67	66	414.35968680142
15	68	67	414.35968680142
15	69	68	414.35968680142
15	70	69	414.35968680142
15	71	70	414.35968680142
15	72	71	414.35968680142
15	73	72	414.35968680142
15	74	73	414.35968680142
15	76	74	414.35968680142
15	77	75	414.35968680142
15	78	76	414.35968680142
15	79	77	414.35968680142
15	80	78	414.35968680142
15	81	79	414.35968680142
15	82	80	414.35968680142
15	83	81	414.35968680142
15	84	82	414.35968680142
15	85	83	414.35968680142
15	86	84	414.35968680142
15	87	85	414.35968680142
15	88	86	414.35968680142
15	89	87	414.35968680142
15	90	88	414.35968680142
15	91	89	414.35968680142
15	92	90	414.35968680142
15	93	91	414.35968680142
15	94	92	414.35968680142
15	95	93	414.35968680142
15	96	94	414.35968680142
15	97	95	414.35968680142
15	98	96	414.35968680142
15	99	97	414.35968680142
15	100	98	414.35968680142
15	101	99	414.35968680142
15	102	100	414.35968680142
15	103	101	414.35968680142
15	104	102	414.35968680142
15	105	103	414.35968680142
15	106	104	414.35968680142
15	107	105	414.35968680142
15	108	106	414.35968680142
15	109	107	414.35968680142
15	110	108	414.35968680142
15	111	109	414.35968680142
15	112	110	414.35968680142
15	113	111	421.63087692621
15	114	112	421.69397668754
15	115	113	421.7743925111
15	116	114	421.87035100635
15	117	115	421.96648917117
15	118	116	422.06269364027
15	119	117	422.15887052741
15	120	118	422.25525445776
15	121	119	422.35166195873
15	122	120	422.44795047371
15	123	121	422.54416080285
15	124	122	422.64048085979
15	125	123	422.73673236734
15	127	124	422.83261270889
15	128	125	422.87225630546
15	129	126	422.82784882945
15	130	127	426.04853330759
15	131	128	426.0787125714
15	132	129	425.98114122032
15	133	130	425.88346840892
15	134	131	425.78542875148
15	135	132	425.68679705106
15	136	133	425.58883288314
15	137	134	425.49075639168
15	138	135	425.39295879377
15	139	136	425.29493892482
15	140	137	425.19663677653
15	141	138	425.09876958284
15	142	139	425.00064954356
15	143	140	424.90247134744
14	2	1	3054.2451183859
14	3	2	3052.6849470758
14	4	3	3049.9778913812
14	5	4	3046.7458860849
14	6	5	3043.5039170883
14	7	6	3040.2721026136
14	8	7	3037.0425867333
14	9	8	3033.80222585
14	10	9	3030.6291744572
14	11	10	3027.5156601374
14	12	11	3024.3896478538
14	13	12	3021.2744779124
14	14	13	3018.1598087885
14	15	14	3015.0353651681
14	16	15	3011.9146856661
14	17	16	3008.6683101979
14	18	17	3005.3612342214
14	19	18	3011.9848524832
14	20	19	3017.5173396643
14	21	20	3023.0625460921
14	22	21	3028.5900623687
14	23	22	3034.1124968667
14	24	23	3039.6411627163
14	25	24	3045.1726008122
14	26	25	3050.6891563057
14	27	26	3056.2337929417
14	28	27	3061.7646129551
14	29	28	3067.2868353612
14	30	29	3072.8010588223
14	31	30	3078.3282156456
14	32	31	3083.8664489574
14	33	32	3089.3925714943
14	34	33	3094.923329719
14	35	34	3100.4387411843
14	36	35	3105.9919178277
14	37	36	3111.5110985762
14	38	37	3117.0447775717
14	39	38	3122.572770131
14	40	39	3136.7845567021
14	41	40	3137.5454964046
14	42	41	3138.2572559724
14	43	42	3138.9555044837
14	44	43	3139.652136274
14	45	44	3140.3471781102
14	46	45	3141.046259541
14	47	46	3141.7436846091
14	48	47	3142.503049625
14	49	48	3143.3418182578
14	50	49	3144.1811347991
14	51	50	3144.9558244444
14	52	51	3145.2261095705
14	53	52	3145.2261125417
14	54	53	3145.2261125417
14	55	54	3145.2261125417
14	56	55	3145.2261125417
14	57	56	3145.2261125417
14	58	57	3145.2261125417
14	59	58	3145.2261125417
14	60	59	3145.2261125417
14	61	60	3145.2261125417
14	62	61	3145.2261125417
14	63	62	3145.2261125417
14	64	63	3145.2261125417
14	65	64	3145.2261125417
14	66	65	3145.2261125417
14	67	66	3145.2261125417
14	68	67	3145.2261125417
14	69	68	3145.2261125417
14	70	69	3145.2261125417
14	71	70	3145.2261125417
14	72	71	3145.2261125417
14	73	72	3145.2261125417
14	74	73	3145.2261125417
14	76	74	3145.2261125417
14	77	75	3145.2261125417
14	78	76	3145.2261125417
14	79	77	3145.2261125417
14	80	78	3145.2261125417
14	81	79	3145.2261125417
14	82	80	3145.2261125417
14	83	81	3145.2261125417
14	84	82	3145.2261125417
14	85	83	3145.2261125417
14	86	84	3145.2261125417
14	87	85	3145.2261125417
14	88	86	3145.2261125417
14	89	87	3145.2261125417
14	90	88	3145.2261125417
14	91	89	3145.2261125417
14	92	90	3145.2261125417
14	93	91	3145.2261125417
14	94	92	3145.2261125417
14	95	93	3145.2261125417
14	96	94	3145.2261125417
14	97	95	3145.2261125417
14	98	96	3145.2261125417
14	99	97	3145.2261125417
14	100	98	3145.2261125417
14	101	99	3145.2261125417
14	102	100	3145.2261125417
14	103	101	3145.2261125417
14	104	102	3145.2261125417
14	105	103	3145.2261125417
14	106	104	3145.2261125417
14	107	105	3145.2261125417
14	108	106	3145.2261125417
14	109	107	3145.2261125417
14	110	108	3145.2261125417
14	111	109	3145.2261125417
14	112	110	3145.2261125417
14	113	111	3136.9972883716
14	114	112	3134.468347687
14	115	113	3130.4645549757
14	116	114	3125.686914123
14	117	115	3120.9003277703
14	118	116	3116.1104402194
14	119	117	3111.3219259361
14	120	118	3106.5231032573
14	121	119	3101.7231070303
14	122	120	3096.9290349514
14	123	121	3092.1388556371
14	124	122	3087.3432131274
14	125	123	3082.5509835966
14	127	124	3077.7772339086
14	128	125	3072.993541736
14	129	126	3068.1721586261
14	130	127	3070.648197336
14	131	128	3075.4979994947
14	132	129	3080.3214864472
14	133	130	3085.1499891396
14	134	131	3089.9966270437
14	135	132	3094.872532879
14	136	133	3099.715438922
14	137	134	3104.563897734
14	138	135	3109.398569308
14	139	136	3114.2442289583
14	140	137	3119.1038432247
14	141	138	3123.9419553
14	142	139	3128.7925669193
14	143	140	3133.6460535501
39	4	3	4.2366583106932
39	5	4	4.0957664658509
39	6	5	1.6583736145946
39	7	6	1.4815920853442
39	8	7	1.4801000257346
39	9	8	1.4093060534439
39	10	9	1.4291069967116
39	11	10	1.5048384681797
39	12	11	1.5775353037734
39	13	12	1.3925102118675
39	14	13	1.6526900138925
39	15	14	1.3892677107842
39	16	15	1.6297695477795
39	17	16	1.5005279952608
39	18	17	1.3444536714422
39	19	18	1.5193790191971
39	20	19	1.6569073300875
39	21	20	1.462389595538
39	22	21	1.4925285951936
39	23	22	1.3465051726072
39	24	23	1.7020872905522
39	25	24	1.4078470591264
39	26	25	1.4323596607401
39	27	26	1.4800103321266
39	28	27	0.973
39	29	28	2.8331720582276
39	30	29	0.973
39	31	30	3.7152746850907
39	32	31	1.520421961556
39	33	32	1.2903818774153
39	34	33	1.5510214692722
39	35	34	1.5156441970817
39	36	35	1.4473866454777
39	37	36	1.51977537656
39	38	37	1.4658580428202
39	39	38	1.5646835911769
39	40	39	1.5339363551058
39	41	40	1.3685258509939
39	42	41	1.7166595148628
39	43	42	1.3861649272969
39	44	43	1.4556420310397
39	45	44	1.495755384937
39	46	45	1.4888935607544
39	47	46	1.5839106527985
39	48	47	1.4064958659764
39	49	48	1.5024541024916
39	50	49	1.4602463765026
39	51	50	1.5912481562759
39	52	51	1.5779449823815
39	53	52	1.4374941498345
39	54	53	1.4129897184251
39	55	54	1.6174345989972
39	56	55	1.4089428718894
39	57	56	1.5451590906351
39	58	57	1.5219898932704
39	59	58	1.5576820329679
39	60	59	1.3992057541272
39	61	60	1.4738501519185
39	62	61	1.480225040266
39	63	62	1.4663583797263
39	64	63	1.600691435193
39	65	64	1.4919632437103
39	66	65	1.4922030200031
39	67	66	0.973
39	68	67	1.696355908861
39	69	68	1.530713485508
39	70	69	1.586176992714
39	71	70	1.3769033549991
39	72	71	1.6152956533827
39	73	72	1.4205499690315
39	74	73	1.6404872740818
39	76	74	1.4564307377903
39	77	75	1.438945131593
39	78	76	1.542731883434
39	79	77	1.56737584745
39	80	78	1.2847445612317
39	81	79	1.7119435144159
39	82	80	1.3884494316512
39	83	81	1.6258260486646
39	84	82	1.3075954515891
39	85	83	1.6383913730312
39	86	84	0.973
39	87	85	1.7462383838935
39	88	86	1.4973695839699
39	89	87	1.6471329497037
39	90	88	1.4346344181364
39	91	89	1.5416219957119
39	92	90	1.5690599953844
39	93	91	1.4688825059749
39	94	92	1.4938904473926
39	95	93	1.4340056434563
39	96	94	1.5164664622265
39	97	95	1.4985659693002
39	98	96	1.5432238359642
39	99	97	1.3299043470656
39	100	98	1.7028069078142
39	101	99	1.2862196993284
39	102	100	1.5250593380362
39	103	101	0.973
39	104	102	0.973
39	105	103	0.973
39	106	104	0.973
39	107	105	0.973
39	108	106	0.973
39	109	107	0.973
39	110	108	0.973
39	111	109	0.973
39	112	110	0.973
39	113	111	0.973
39	114	112	0.973
39	115	113	0.973
39	116	114	0.973
39	117	115	0.973
39	118	116	0.973
39	119	117	0.973
39	120	118	0.973
39	121	119	0.973
39	122	120	0.973
39	123	121	0.973
39	124	122	0.973
39	125	123	0.973
39	127	124	0.973
39	128	125	0.973
39	129	126	0.973
39	130	127	0.973
39	131	128	0.973
39	132	129	0.973
39	133	130	0.973
39	134	131	0.973
39	135	132	0.973
39	136	133	0.973
39	137	134	0.973
39	138	135	0.973
39	139	136	0.973
39	140	137	0.973
39	141	138	0.973
39	142	139	0.973
39	143	140	0.973
39	144	141	2.5258274603434
39	145	142	3.6303483433878
39	146	143	4.5994687358164
39	147	144	3.0395222321445
39	148	145	1.2874755908532
39	149	146	1.6029218285851
39	150	147	1.4619076328335
39	151	148	1.5898736911192
39	152	149	1.463709380539
39	153	150	1.381322315391
39	154	151	1.4930879363886
39	155	152	1.6157530680314
39	156	153	1.5955346926752
39	157	154	1.3453528779911
39	158	155	1.4315276832021
39	159	156	1.5226023625926
39	160	157	1.564041589307
39	161	158	1.5164445865351
39	162	159	1.5443813440298
39	163	160	1.4201801965369
39	164	161	1.4709754674218
39	165	162	1.6246524479475
39	166	163	1.3979709861703
39	167	164	1.5370625923859
39	168	165	0.973
39	169	166	0.973
39	170	167	0.973
39	171	168	0.973
39	172	169	0.973
39	173	170	0.973
39	174	171	0.973
39	175	172	0.973
39	176	173	0.973
39	177	174	0.973
39	178	175	0.973
39	179	176	0.973
39	180	177	0.973
39	181	178	0.973
39	182	179	0.973
39	183	180	0.973
39	184	181	2.4805239905361
39	185	182	3.349272979205
39	186	183	4.5328804257296
39	187	184	3.1345806348382
39	188	185	1.707473194379
39	189	186	1.4068506766002
39	190	187	0.973
39	191	188	3.0918954549106
39	192	189	1.5886396742666
39	193	190	1.4626734516444
39	194	191	1.4438456594024
39	195	192	1.6274904868028
39	196	193	1.5127068078611
38	4	3	2.0315273079113
38	5	4	1.4848879945686
38	6	5	0.088532499754802
38	7	6	-0.010847786376253
38	8	7	-0.011304865740239
38	9	8	-0.049930673681666
38	10	9	-0.037497097819577
38	11	10	0.0056732289725918
38	12	11	0.045364297623745
38	13	12	-0.058258121423423
38	14	13	0.086750995095353
38	15	14	-0.060832749227993
38	16	15	0.073198866683525
38	17	16	9.3588514718412e-05
38	18	17	-0.086127512103412
38	19	18	0.013478562228848
38	20	19	0.08782031150302
38	21	20	-0.021277701747604
38	22	21	-0.0040731411031452
38	23	22	-0.08474017589353
38	24	23	0.11316502929432
38	25	24	-0.051377933477052
38	26	25	-0.036331663371529
38	27	26	-0.0088163287681535
38	28	27	-0.733823648082
38	29	28	0.76098344701892
38	30	29	-1.2061477221739
38	31	30	1.2535553408814
38	32	31	0.011071887682192
38	33	32	-0.11661590675125
38	34	33	0.031750672205817
38	35	34	0.011110791151877
38	36	35	-0.026981829095166
38	37	36	0.013960974744987
38	38	37	-0.016319905845449
38	39	38	0.038715050064494
38	40	39	0.020398384223226
38	41	40	-0.07177077048691
38	42	41	0.12164746978553
38	43	42	-0.06324010586366
38	44	43	-0.022924068395514
38	45	44	-7.3189497928894e-06
38	46	45	-0.0037932143756185
38	47	46	0.048451297194697
38	48	47	-0.050822531655431
38	49	48	0.0039020714536306
38	50	49	-0.019568773871288
38	51	50	0.053190176484641
38	52	51	0.043788844381925
38	53	52	-0.034558010317851
38	54	53	-0.04709932639962
38	55	54	0.066784290918149
38	56	55	-0.049904063977301
38	57	56	0.026745549223851
38	58	57	0.013084183961618
38	59	58	0.032046676075552
38	60	59	-0.055909407038707
38	61	60	-0.012977752771694
38	62	61	-0.0090298485686073
38	63	62	-0.016395756958518
38	64	63	0.057926862738095
38	65	64	-0.0036696401261729
38	66	65	-0.0034128729463552
38	67	66	-0.1777451287782
38	68	67	0.11579541122673
38	69	68	0.020083430688828
38	70	69	0.049656733355951
38	71	70	-0.067353585804812
38	72	71	0.066236176809761
38	73	72	-0.043043912528082
38	74	73	0.078868193537928
38	76	74	-0.024331191391684
38	77	75	-0.033207235047594
38	78	76	0.024913331586868
38	79	77	0.037368800644763
38	80	78	-0.11990041269455
38	81	79	0.11903748140903
38	82	80	-0.061946713817306
38	83	81	0.070043046071659
38	84	82	-0.10720700623002
38	85	83	0.078461514816154
38	86	84	-0.22874620089692
38	87	85	0.14420859475539
38	88	86	0.0015810138033698
38	89	87	0.083391084310133
38	90	88	-0.03582823001314
38	91	89	0.024104937487282
38	92	90	0.038102942234837
38	93	91	-0.017824866073206
38	94	92	-0.0035558322351426
38	95	93	-0.036324944181834
38	96	94	0.010188063073437
38	97	95	2.2136671468331e-05
38	98	96	0.024425204475411
38	99	97	-0.094163168007508
38	100	98	0.11374149838928
38	101	99	-0.11910461779451
38	102	100	0.017269855313934
38	103	101	-3.4711100693264
38	104	102	-3.7780090966509
38	105	103	0
38	106	104	0
38	107	105	0
38	108	106	0
38	109	107	0
38	110	108	0
38	111	109	0
38	112	110	0
38	113	111	0
38	114	112	0
38	115	113	0
38	116	114	0
38	117	115	0
38	118	116	0
38	119	117	0
38	120	118	0
38	121	119	0
38	122	120	0
38	123	121	0
38	124	122	0
38	125	123	0
38	127	124	0
38	128	125	0
38	129	126	0
38	130	127	0
38	131	128	0
38	132	129	0
38	133	130	0
38	134	131	0
38	135	132	0
38	136	133	0
38	137	134	0
38	138	135	0
38	139	136	0
38	140	137	0
38	141	138	0
38	142	139	0
38	143	140	0
38	144	141	2.3247887876524
38	145	142	2.1363972799911
38	146	143	2.0183376956591
38	147	144	0.86869519052792
38	148	145	-0.11834525486222
38	149	146	0.060032239605207
38	150	147	-0.019583486078773
38	151	148	0.051246723765507
38	152	149	-0.019606641964056
38	153	150	-0.064684991922695
38	154	151	-0.00058495741803188
38	155	152	0.066727448098827
38	156	153	0.052957153024618
38	157	154	-0.086103393998928
38	158	155	-0.035813141665422
38	159	156	0.015819228326436
38	160	157	0.0379697899241
38	161	158	0.010480775421019
38	162	159	0.025365574490279
38	163	160	-0.043699650596827
38	164	161	-0.014265999805648
38	165	162	0.070283428283874
38	166	163	-0.056348228815478
38	167	164	0.022069977812935
38	168	165	-1.0636924343763
38	169	166	-4.4603900169255
38	170	167	-1.7780530941535
38	171	168	0
38	172	169	0
38	173	170	0
38	174	171	0
38	175	172	0
38	176	173	0
38	177	174	0
38	178	175	0
38	179	176	0
38	180	177	0
38	181	178	0
38	182	179	0
38	183	180	0
38	184	181	2.2857628629805
38	185	182	1.9740819524228
38	186	183	2.03933438309
38	187	184	0.94017345025147
38	188	185	0.11614169122884
38	189	186	-0.051961939088068
38	190	187	-0.96186123727102
38	191	188	0.9131926856607
38	192	189	0.051209578441922
38	193	190	-0.019680031170138
38	194	191	-0.029465686546173
38	195	192	0.072219616505317
38	196	193	0.0069790118536917
24	3	2	3.7486843338526
24	4	3	5.7802116417639
24	5	4	7.2650996363325
24	6	5	7.3536321360873
24	7	6	7.3427843497111
24	8	7	7.3314794839708
24	9	8	7.2815488102892
24	10	9	7.2440517124696
24	11	10	7.2497249414422
24	12	11	7.2950892390659
24	13	12	7.2368311176425
24	14	13	7.3235821127379
24	15	14	7.2627493635099
24	16	15	7.3359482301934
24	17	16	7.3360418187081
24	18	17	7.2499143066047
24	19	18	7.2633928688335
24	20	19	7.3512131803366
24	21	20	7.329935478589
24	22	21	7.3258623374858
24	23	22	7.2411221615923
24	24	23	7.3542871908866
24	25	24	7.3029092574096
24	26	25	7.266577594038
24	27	26	7.2577612652699
24	28	27	6.5239376171879
24	29	28	7.2849210642068
24	30	29	6.0787733420329
24	31	30	7.3323286829143
24	32	31	7.3434005705965
24	33	32	7.2267846638452
24	34	33	7.2585353360511
24	35	34	7.2696461272029
24	36	35	7.2426642981078
24	37	36	7.2566252728528
24	38	37	7.2403053670073
24	39	38	7.2790204170718
24	40	39	7.299418801295
24	41	40	7.2276480308081
24	42	41	7.3492955005937
24	43	42	7.28605539473
24	44	43	7.2631313263345
24	45	44	7.2631240073847
24	46	45	7.2593307930091
24	47	46	7.3077820902038
24	48	47	7.2569595585483
24	49	48	7.260861630002
24	50	49	7.2412928561307
24	51	50	7.2944830326153
24	52	51	7.3382718769972
24	53	52	7.3037138666794
24	54	53	7.2566145402798
24	55	54	7.3233988311979
24	56	55	7.2734947672206
24	57	56	7.3002403164445
24	58	57	7.3133245004061
24	59	58	7.3453711764816
24	60	59	7.2894617694429
24	61	60	7.2764840166712
24	62	61	7.2674541681026
24	63	62	7.2510584111441
24	64	63	7.3089852738822
24	65	64	7.305315633756
24	66	65	7.3019027608097
24	67	66	7.1241576320315
24	68	67	7.2399530432582
24	69	68	7.260036473947
24	70	69	7.309693207303
24	71	70	7.2423396214982
24	72	71	7.3085757983079
24	73	72	7.2655318857799
24	74	73	7.3444000793178
24	76	74	7.3200688879261
24	77	75	7.2868616528785
24	78	76	7.3117749844654
24	79	77	7.3491437851101
24	80	78	7.2292433724156
24	81	79	7.3482808538246
24	82	80	7.2863341400073
24	83	81	7.356377186079
24	84	82	7.249170179849
24	85	83	7.3276316946651
24	86	84	7.0988854937682
24	87	85	7.2430940885236
24	88	86	7.2446751023269
24	89	87	7.3280661866371
24	90	88	7.2922379566239
24	91	89	7.3163428941112
24	92	90	7.3544458363461
24	93	91	7.3366209702729
24	94	92	7.3330651380377
24	95	93	7.2967401938559
24	96	94	7.3069282569293
24	97	95	7.3069503936008
24	98	96	7.3313755980762
24	99	97	7.2372124300687
24	100	98	7.350953928458
24	101	99	7.2318493106635
24	102	100	7.2491191659774
24	103	101	3.7780090966509
24	104	102	0
24	105	103	0
24	106	104	0
24	107	105	0
24	108	106	0
24	109	107	0
24	110	108	0
24	111	109	0
24	112	110	0
24	113	111	0
24	114	112	0
24	115	113	0
24	116	114	0
24	117	115	0
24	118	116	0
24	119	117	0
24	120	118	0
24	121	119	0
24	122	120	0
24	123	121	0
24	124	122	0
24	125	123	0
24	127	124	0
24	128	125	0
24	129	126	0
24	130	127	0
24	131	128	0
24	132	129	0
24	133	130	0
24	134	131	0
24	135	132	0
24	136	133	0
24	137	134	0
24	138	135	0
24	139	136	0
24	140	137	0
24	141	138	0
24	142	139	0
24	143	140	0
24	144	141	2.3247887876524
24	145	142	4.4611860676435
24	146	143	6.4795237633027
24	147	144	7.3482189538306
24	148	145	7.2298736989684
24	149	146	7.2899059385736
24	150	147	7.2703224524948
24	151	148	7.3215691762603
24	152	149	7.3019625342963
24	153	150	7.2372775423736
24	154	151	7.2366925849555
24	155	152	7.3034200330544
24	156	153	7.356377186079
24	157	154	7.27027379208
24	158	155	7.2344606504146
24	159	156	7.2502798787411
24	160	157	7.2882496686652
24	161	158	7.2987304440862
24	162	159	7.3240960185765
24	163	160	7.2803963679796
24	164	161	7.266130368174
24	165	162	7.3364137964579
24	166	163	7.2800655676424
24	167	164	7.3021355454553
24	168	165	6.238443111079
24	169	166	1.7780530941535
24	170	167	0
24	171	168	0
24	172	169	0
24	173	170	0
24	174	171	0
24	175	172	0
24	176	173	0
24	177	174	0
24	178	175	0
24	179	176	0
24	180	177	0
24	181	178	0
24	182	179	0
24	183	180	0
24	184	181	2.2857628629805
24	185	182	4.2598448154033
24	186	183	6.2991791984933
24	187	184	7.2393526487448
24	188	185	7.3554943399736
24	189	186	7.3035324008855
24	190	187	6.3416711636145
24	191	188	7.2548638492752
24	192	189	7.3060734277171
24	193	190	7.286393396547
24	194	191	7.2569277100008
24	195	192	7.3291473265061
24	196	193	7.3361263383598
9	2	1	927.88424570445
9	3	2	928.46847463559
9	4	3	929.44302724173
9	5	4	930.76687552626
9	6	5	932.19789601113
9	7	6	933.64850186179
9	8	7	941.26086877301
9	9	8	945.51131225854
9	10	9	949.76207535273
9	11	10	954.17466462708
9	12	11	952.19397590851
9	13	12	950.2212174596
9	14	13	948.24347210284
9	15	14	946.26658434431
9	16	15	944.28450120309
9	17	16	942.30357207827
9	18	17	940.32845073806
9	19	18	938.34842633542
9	20	19	936.36511437042
9	21	20	934.38420362257
9	22	21	932.40649318854
9	23	22	930.42707446529
9	24	23	928.44380471513
9	25	24	926.46454943202
9	26	25	920.29306208609
9	27	26	919.43556123499
9	28	27	918.56865272374
9	29	28	910.56135089883
9	30	29	909.48287315153
9	31	30	897.0199674068
9	32	31	891.57603046529
9	33	32	886.14625801249
9	34	33	880.7250874613
9	35	34	875.28628141777
9	36	35	869.84609210144
9	37	36	864.4211698605
9	38	37	853.21180701587
9	39	38	852.19258180551
9	40	39	851.17411400028
9	41	40	850.15717489393
9	42	41	849.14128894038
9	43	42	848.12437151503
9	44	43	847.10491686994
9	45	44	846.08935367505
9	46	45	845.07334286724
9	47	46	844.05653279133
9	48	47	843.03880311558
9	49	48	842.019821444
9	50	49	841.00187405756
9	51	50	839.98542187422
9	52	51	838.96910700265
9	53	52	837.94870759613
9	54	53	832.04038536235
9	55	54	830.19249438262
9	56	55	828.34701443623
9	57	56	826.50233262595
9	58	57	824.66150238465
9	59	58	822.82147882093
9	60	59	820.97469793267
9	61	60	819.12655841903
9	62	61	817.27948568363
9	63	62	815.44095232891
9	64	63	813.59871958455
9	65	64	811.75308246718
9	66	65	809.90073350646
9	67	66	808.0558299855
9	68	67	811.70922064344
9	69	68	817.95851267709
9	70	69	824.21154978755
9	71	70	830.45671823254
9	72	71	836.67772095371
9	73	72	842.91199592414
9	74	73	849.15509869789
9	76	74	855.38292841622
9	77	75	861.61719405563
9	78	76	867.14980019807
9	79	77	865.45302963402
9	80	78	863.75666722138
9	81	79	862.05973362158
9	82	80	860.36057396715
9	83	81	858.76297044384
9	84	82	853.34303723858
9	85	83	852.32993589689
9	86	84	851.31978771403
9	87	85	842.44937562402
9	88	86	836.28766919665
9	89	87	830.12393969725
9	90	88	823.97177349092
9	91	89	817.78921101753
9	92	90	811.61957640176
9	93	91	805.44247298692
9	94	92	799.28574265619
9	95	93	793.14173505858
9	96	94	786.982802945
9	97	95	780.83021800747
9	98	96	774.65517658395
9	99	97	768.49692768533
9	100	98	762.30858855125
9	101	99	756.15602083011
9	102	100	750.01037545391
9	103	101	745.17224682589
9	104	102	743.97794646615
9	105	103	743.97794646615
9	106	104	743.97794646615
9	107	105	743.97794646615
9	108	106	743.97794646615
9	109	107	743.97794646615
9	110	108	743.97794646615
9	111	109	743.97794646615
9	112	110	743.97794646615
9	113	111	743.97794646615
9	114	112	743.97794646615
9	115	113	743.97794646615
9	116	114	743.97794646615
9	117	115	743.97794646615
9	118	116	743.97794646615
9	119	117	743.97794646615
9	120	118	743.97794646615
9	121	119	743.97794646615
9	122	120	743.97794646615
9	123	121	743.97794646615
9	124	122	743.97794646615
9	125	123	743.97794646615
9	127	124	743.97794646615
9	128	125	743.97794646615
9	129	126	743.97794646615
9	130	127	743.97794646615
9	131	128	743.97794646615
9	132	129	743.97794646615
9	133	130	743.97794646615
9	134	131	743.97794646615
9	135	132	743.97794646615
9	136	133	743.97794646615
9	137	134	743.97794646615
9	138	135	743.97794646615
9	139	136	743.97794646615
9	140	137	743.97794646615
9	141	138	743.97794646615
9	142	139	743.97794646615
9	143	140	743.97794646615
9	144	141	735.00589891414
9	145	142	735.63464299857
9	146	143	736.61304530119
9	147	144	737.84385849171
9	148	145	739.09492871546
9	149	146	740.3479005079
9	150	147	741.59785829629
9	151	148	742.85202229779
9	152	149	744.10752285306
9	153	150	745.35985583243
9	154	151	746.62570922745
9	155	152	747.89558084983
9	156	153	749.12670246095
9	157	154	753.2622975825
9	158	155	754.67961618931
9	159	156	756.09397635454
9	160	157	757.50713515424
9	161	158	758.92969230492
9	162	159	760.34898001574
9	163	160	761.76771222633
9	164	161	763.18745260152
9	165	162	764.60307582142
9	166	163	766.02242809204
9	167	164	767.44332067516
9	168	165	768.83153594486
9	169	166	769.58755880359
9	170	167	769.64039200472
9	171	168	769.64039200472
9	172	169	769.64039200472
9	173	170	769.64039200472
9	174	171	769.64039200472
9	175	172	769.64039200472
9	176	173	769.64039200472
9	177	174	769.64039200472
9	178	175	769.64039200472
9	179	176	769.64039200472
9	180	177	769.64039200472
9	181	178	769.64039200472
9	182	179	769.64039200472
9	183	180	769.64039200472
9	184	181	777.83803708016
9	185	182	778.13991529333
9	186	183	778.62391275847
9	187	184	779.25866605275
9	188	185	779.91413231773
9	189	186	780.5692395267
9	190	187	781.19316222805
9	191	188	784.24518381901
9	192	189	783.59105190834
9	193	190	782.9360978878
9	194	191	782.28100174153
9	195	192	781.62663238558
9	196	193	780.96917647443
8	2	1	4300.0751958764
8	3	2	4298.1631739199
8	4	3	4294.9737290271
8	5	4	4290.6411346413
8	6	5	4285.9577948727
8	7	6	4281.258631286
8	8	7	4272.6919687584
8	9	8	4271.4736671028
8	10	9	4270.255273838
8	11	10	4259.0739328342
8	12	11	4252.7422336596
8	13	12	4246.4358853044
8	14	13	4240.1135952214
8	15	14	4233.7940466363
8	16	15	4227.4578898886
8	17	16	4221.1254222036
8	18	17	4214.8115203561
8	19	18	4208.4819448108
8	20	19	4202.1418598626
8	21	20	4195.8094509235
8	22	21	4189.4872724786
8	23	22	4183.1596331183
8	24	23	4176.8196831189
8	25	24	4170.4925662303
8	26	25	4155.7780255053
8	27	26	4152.8063415213
8	28	27	4149.9439671603
8	29	28	4145.1720115053
8	30	29	4145.5619967622
8	31	30	4149.9637981484
8	32	31	4151.915206975
8	33	32	4153.8653890568
8	34	33	4155.81248164
8	35	34	4157.7659082679
8	36	35	4159.7198317184
8	37	36	4161.6682717759
8	38	37	4158.451480627
8	39	38	4152.0829337215
8	40	39	4145.7191194012
8	41	40	4139.3648570332
8	42	41	4133.0171752058
8	43	42	4126.6630483098
8	44	43	4120.2930677999
8	45	44	4113.9474027041
8	46	45	4107.5989407349
8	47	46	4101.2454846032
8	48	47	4094.8862824257
8	49	48	4088.5192572528
8	50	49	4082.1586947276
8	51	50	4075.8074748588
8	52	51	4069.4571129717
8	53	52	4063.0812291958
8	54	53	4043.0093842082
8	55	54	4036.8816128388
8	56	55	4030.7618366711
8	57	56	4024.6447071939
8	58	57	4018.5403498631
8	59	58	4012.4386675472
8	60	59	4006.3145773401
8	61	60	4000.1859818101
8	62	61	3994.0609238118
8	63	62	3987.9641831619
8	64	63	3981.8551750058
8	65	64	3975.7377306876
8	66	65	3969.614975743
8	67	66	3963.5168309577
8	68	67	3951.6097372779
8	69	68	3949.8433899768
8	70	69	3948.0855541409
8	71	70	3946.2573897807
8	72	71	3944.4307530757
8	73	72	3942.6002193176
8	74	73	3940.7670935031
8	76	74	3938.9385051358
8	77	75	3937.1083063152
8	78	76	3934.884295421
8	79	77	3928.6066361979
8	80	78	3922.3304870408
8	81	79	3916.052224623
8	82	80	3909.7657263173
8	83	81	3903.8549622426
8	84	82	3889.3223403865
8	85	83	3885.3133924499
8	86	84	3881.3161304716
8	87	85	3872.7246960384
8	88	86	3873.3133258638
8	89	87	3873.9021489539
8	90	88	3874.4898673989
8	91	89	3875.0804896092
8	92	90	3875.6698768171
8	93	91	3876.2599775218
8	94	92	3876.848131979
8	95	93	3877.4350710295
8	96	94	3878.0234358238
8	97	95	3878.6111942703
8	98	96	3879.2010979923
8	99	97	3879.7893975189
8	100	98	3880.3805715754
8	101	99	3880.9683283773
8	102	100	3881.5554238852
8	103	101	3882.0066202539
8	104	102	3882.1021642827
8	105	103	3882.1021642827
8	106	104	3882.1021642827
8	107	105	3882.1021642827
8	108	106	3882.1021642827
8	109	107	3882.1021642827
8	110	108	3882.1021642827
8	111	109	3882.1021642827
8	112	110	3882.1021642827
8	113	111	3882.1021642827
8	114	112	3882.1021642827
8	115	113	3882.1021642827
8	116	114	3882.1021642827
8	117	115	3882.1021642827
8	118	116	3882.1021642827
8	119	117	3882.1021642827
8	120	118	3882.1021642827
8	121	119	3882.1021642827
8	122	120	3882.1021642827
8	123	121	3882.1021642827
8	124	122	3882.1021642827
8	125	123	3882.1021642827
8	127	124	3882.1021642827
8	128	125	3882.1021642827
8	129	126	3882.1021642827
8	130	127	3882.1021642827
8	131	128	3882.1021642827
8	132	129	3882.1021642827
8	133	130	3882.1021642827
8	134	131	3882.1021642827
8	135	132	3882.1021642827
8	136	133	3882.1021642827
8	137	134	3882.1021642827
8	138	135	3882.1021642827
8	139	136	3882.1021642827
8	140	137	3882.1021642827
8	141	138	3882.1021642827
8	142	139	3882.1021642827
8	143	140	3882.1021642827
8	144	141	3864.2718727155
8	145	142	3861.8184039512
8	146	143	3857.8423423428
8	147	144	3852.7775025942
8	148	145	3847.6293044383
8	149	146	3842.4732812601
8	150	147	3837.3296608151
8	151	148	3832.1687316545
8	152	149	3827.002302528
8	153	150	3821.8489080881
8	154	151	3816.6899775968
8	155	152	3811.5396399009
8	156	153	3806.5249822746
8	157	154	3789.9761429017
8	158	155	3784.3428366808
8	159	156	3778.7212891479
8	160	157	3773.1045165894
8	161	158	3767.4503891349
8	162	159	3761.8092564691
8	163	160	3756.1703317071
8	164	161	3750.5273998714
8	165	162	3744.9008321732
8	166	163	3739.2594429067
8	167	164	3733.6119314796
8	168	165	3728.1389208893
8	169	166	3725.2159874425
8	170	167	3725.0117238691
8	171	168	3725.0117238691
8	172	169	3725.0117238691
8	173	170	3725.0117238691
8	174	171	3725.0117238691
8	175	172	3725.0117238691
8	176	173	3725.0117238691
8	177	174	3725.0117238691
8	178	175	3725.0117238691
8	179	176	3725.0117238691
8	180	177	3725.0117238691
8	181	178	3725.0117238691
8	182	179	3725.0117238691
8	183	180	3725.0117238691
8	184	181	3693.2897208181
8	185	182	3692.1044986456
8	186	183	3690.2358102077
8	187	184	3687.7850615419
8	188	185	3685.2543411993
8	189	186	3682.7250071528
8	190	187	3680.3160748296
8	191	188	3681.3013169118
8	192	189	3683.8268853835
8	193	190	3686.3556279776
8	194	191	3688.8849193116
8	195	192	3691.4114045468
8	196	193	3693.9366830973
0	2	1	4667.1101155482
0	3	2	4664.42549285
0	4	3	4660.1807363053
0	5	4	4654.3248438897
0	6	5	4646.945957426
0	7	6	4639.3126626904
0	8	7	4631.6641402836
0	9	8	4624.0267939255
0	10	9	4616.3978062593
0	11	10	4608.7577455471
0	12	11	4601.1148893762
0	13	12	4584.3993480499
0	14	13	4578.2383832832
0	15	14	4572.0676863932
0	16	15	4565.9102160695
0	17	16	4559.7394708318
0	18	17	4553.5769800514
0	19	18	4547.4099675016
0	20	19	4510.3271169281
0	21	20	4502.3229240268
0	22	21	4494.3181072582
0	23	22	4486.3272923129
0	24	23	4478.3399976784
0	25	24	4470.3514595296
0	26	25	4462.3460545282
0	27	26	4454.378930162
0	28	27	4446.3871879195
0	29	28	4438.4016370396
0	30	29	4430.4246740068
0	31	30	4422.4342940099
0	32	31	4414.4500623753
0	33	32	4406.4598348175
0	34	33	4398.4717687755
0	35	34	4390.4963217237
0	36	35	4382.5196873913
0	37	36	4374.5278398921
0	38	37	4366.5243662765
0	39	38	4358.4841121373
0	40	39	4350.4133888224
0	41	40	4342.3735690017
0	42	41	4334.364854843
0	43	42	4312.6456267357
0	44	43	4304.7266947313
0	45	44	4296.8261241621
0	46	45	4288.9189405866
0	47	46	4280.9866526115
0	48	47	4273.0882447135
0	49	48	4265.1729783691
0	50	49	4257.2615887437
0	51	50	4249.3612792133
0	52	51	4241.4482020008
0	53	52	4233.5204901834
0	54	53	4225.5622608464
0	55	54	4207.6109406154
0	56	55	4199.7991174373
0	57	56	4191.9495620242
0	58	57	4184.1047037671
0	59	58	4176.2753511862
0	60	59	4168.4574165178
0	61	60	4160.6417743924
0	62	61	4152.8025938403
0	63	62	4144.9790271463
0	64	63	4137.1574278354
0	65	64	4130.4535299775
0	66	65	4113.9958804911
0	67	66	4111.951853764
0	68	67	4111.0643507328
0	69	68	4111.0245304418
0	70	69	4111.0245304418
0	71	70	4111.0245304418
0	72	71	4111.0245304418
0	73	72	4111.0245304418
0	74	73	4111.0245304418
0	76	74	4111.0245304418
0	77	75	4111.0245304418
0	78	76	4111.0245304418
0	79	77	4111.0245304418
0	80	78	4111.0245304418
0	81	79	4111.0245304418
0	82	80	4111.0245304418
0	83	81	4111.0245304418
0	84	82	4111.0245304418
0	85	83	4111.0245304418
0	86	84	4111.0245304418
0	87	85	4111.0245304418
0	88	86	4111.0245304418
0	89	87	4111.0245304418
0	90	88	4111.0245304418
0	91	89	4111.0245304418
0	92	90	4111.0245304418
0	93	91	4111.0245304418
0	94	92	4111.0245304418
0	95	93	4111.0245304418
0	96	94	4111.0245304418
0	97	95	4111.0245304418
0	98	96	4111.0245304418
0	99	97	4111.0245304418
0	100	98	4111.0245304418
0	101	99	4111.0245304418
0	102	100	4111.0245304418
0	103	101	4111.0245304418
0	104	102	4111.0245304418
0	105	103	4111.0245304418
0	106	104	4111.0245304418
0	107	105	4111.0245304418
0	108	106	4111.0245304418
0	109	107	4111.0245304418
0	110	108	4111.0245304418
0	111	109	4111.0245304418
0	112	110	4111.0245304418
0	113	111	4111.0245304418
0	114	112	4111.0245304418
0	115	113	4111.0245304418
0	116	114	4111.0245304418
0	117	115	4111.0245304418
0	118	116	4111.0245304418
0	119	117	4111.0245304418
0	120	118	4111.0245304418
0	121	119	4111.0245304418
0	122	120	4111.0245304418
0	123	121	4111.0245304418
0	124	122	4111.0245304418
0	125	123	4111.0245304418
0	127	124	4099.0820017664
0	128	125	4097.6422597153
0	129	126	4095.3477103172
0	130	127	4092.1848495093
0	131	128	4078.916945163
0	132	129	4078.2394825052
0	133	130	4059.5444451638
0	134	131	4054.5765292023
0	135	132	4049.611913303
0	136	133	4032.4506368711
0	137	134	4025.1299182093
0	138	135	4017.8234888454
0	139	136	4010.5066133881
0	140	137	4003.1895025645
0	141	138	3996.5097094909
0	142	139	3989.1982994789
0	143	140	3968.3184040115
0	144	141	3961.0028699416
0	145	142	3953.6752364585
0	146	143	3946.3703709736
0	147	144	3939.0428065101
0	148	145	3931.7258553435
0	149	146	3924.7907993586
0	150	147	3920.887022119
0	151	148	3920.254200733
0	152	149	3920.254200733
0	153	150	3920.254200733
0	154	151	3920.254200733
0	155	152	3920.254200733
0	156	153	3920.254200733
0	157	154	3920.254200733
0	158	155	3920.254200733
0	159	156	3920.254200733
0	160	157	3920.254200733
0	161	158	3920.254200733
0	162	159	3920.254200733
0	163	160	3920.254200733
0	164	161	3920.254200733
0	165	162	3920.254200733
0	166	163	3920.254200733
0	167	164	3920.254200733
0	168	165	3920.254200733
0	169	166	3920.254200733
0	170	167	3920.254200733
0	171	168	3920.254200733
0	172	169	3920.254200733
0	173	170	3920.254200733
0	174	171	3920.254200733
0	175	172	3920.254200733
0	176	173	3920.254200733
0	177	174	3920.254200733
0	178	175	3920.254200733
0	179	176	3920.254200733
0	180	177	3920.254200733
0	181	178	3920.254200733
0	182	179	3920.254200733
0	183	180	3920.254200733
0	184	181	3908.0764945148
0	185	182	3905.1210089984
0	186	183	3900.5829730079
0	187	184	3894.2928687352
0	188	185	3886.4763026322
0	189	186	3878.4296658796
0	190	187	3870.4016695798
0	191	188	3862.3697240589
0	192	189	3854.3406793571
0	193	190	3846.3054793279
0	194	191	3838.2682818922
0	195	192	3830.2441825399
0	196	193	3822.2108357261
0	197	194	3814.1761848696
0	198	195	3806.1181041638
0	199	196	3790.2037061934
0	200	197	3782.1386639981
0	201	198	3774.063799469
0	202	199	3765.8934917197
0	203	200	3764.2851503443
1	2	1	820.63984215761
1	3	2	819.93860474074
1	4	3	818.8319185037
1	5	4	817.3051794614
1	6	5	815.38059615749
1	7	6	813.38687279388
1	8	7	811.38917214852
1	9	8	809.39439055059
1	10	9	807.40179214092
1	11	10	805.40630158686
1	12	11	803.41008089312
1	13	12	799.05439726764
1	14	13	797.44530175642
1	15	14	795.83366444915
1	16	15	794.22548160221
1	17	16	792.61383166768
1	18	17	791.00433759845
1	19	18	789.39400298753
1	20	19	779.7214283584
1	21	20	777.60669861828
1	22	21	775.49180405068
1	23	22	773.38060880327
1	24	23	771.2703436316
1	25	24	769.15974992006
1	26	25	767.04469993975
1	27	26	764.93976380838
1	28	27	762.82832356647
1	29	28	760.7185190996
1	30	29	758.61098356548
1	31	30	756.49990323261
1	32	31	754.39044731394
1	33	32	752.27940725589
1	34	33	750.16893827626
1	35	34	748.0618032685
1	36	35	745.95435457792
1	37	36	743.84288652692
1	38	37	741.82883234054
1	39	38	739.95819156414
1	40	39	738.08046184732
1	41	40	736.20992211921
1	42	41	734.19300228174
1	43	42	728.91032551385
1	44	43	726.85573487574
1	45	44	724.805908167
1	46	45	722.75436569398
1	47	46	720.69630980924
1	48	47	718.64704421202
1	49	48	716.59340464038
1	50	49	714.54077089509
1	51	50	712.49101191367
1	52	51	710.47804509734
1	53	52	708.56016457009
1	54	53	706.67372872863
1	55	54	702.22604417579
1	56	55	700.24648381145
1	57	56	698.25736188444
1	58	57	696.26943024344
1	59	58	694.28542782887
1	60	59	692.30431877818
1	61	60	690.32379067091
1	62	61	688.33729779259
1	63	62	686.35476155463
1	64	63	684.3727238627
1	65	64	682.67391806748
1	66	65	677.66395991256
1	67	66	677.22560237348
1	68	67	677.03527039811
1	69	68	677.02673062488
1	70	69	677.02673062488
1	71	70	677.02673062488
1	72	71	677.02673062488
1	73	72	677.02673062488
1	74	73	677.02673062488
1	76	74	677.02673062488
1	77	75	677.02673062488
1	78	76	677.02673062488
1	79	77	677.02673062488
1	80	78	677.02673062488
1	81	79	677.02673062488
1	82	80	677.02673062488
1	83	81	677.02673062488
1	84	82	677.02673062488
1	85	83	677.02673062488
1	86	84	677.02673062488
1	87	85	677.02673062488
1	88	86	677.02673062488
1	89	87	677.02673062488
1	90	88	677.02673062488
1	91	89	677.02673062488
1	92	90	677.02673062488
1	93	91	677.02673062488
1	94	92	677.02673062488
1	95	93	677.02673062488
1	96	94	677.02673062488
1	97	95	677.02673062488
1	98	96	677.02673062488
1	99	97	677.02673062488
1	100	98	677.02673062488
1	101	99	677.02673062488
1	102	100	677.02673062488
1	103	101	677.02673062488
1	104	102	677.02673062488
1	105	103	677.02673062488
1	106	104	677.02673062488
1	107	105	677.02673062488
1	108	106	677.02673062488
1	109	107	677.02673062488
1	110	108	677.02673062488
1	111	109	677.02673062488
1	112	110	677.02673062488
1	113	111	677.02673062488
1	114	112	677.02673062488
1	115	113	677.02673062488
1	116	114	677.02673062488
1	117	115	677.02673062488
1	118	116	677.02673062488
1	119	117	677.02673062488
1	120	118	677.02673062488
1	121	119	677.02673062488
1	122	120	677.02673062488
1	123	121	677.02673062488
1	124	122	677.02673062488
1	125	123	677.02673062488
1	127	124	675.89566040864
1	128	125	675.53739383951
1	129	126	674.96641632313
1	130	127	674.17979090881
1	131	128	670.9593852807
1	132	129	670.80152990412
1	133	130	666.68967879851
1	134	131	665.63451782282
1	135	132	664.58005776416
1	136	133	657.68224891775
1	137	134	656.12202350759
1	138	135	654.56484349867
1	139	136	653.00543717
1	140	137	651.445980679
1	141	138	646.75448685907
1	142	139	645.19718292149
1	143	140	640.6873878492
1	144	141	639.04833223346
1	145	142	637.40656572731
1	146	143	635.76990042293
1	147	144	634.12814938069
1	148	145	632.48877626246
1	149	146	630.93496729255
1	150	147	630.06032055507
1	151	148	629.91847207483
1	152	149	629.91847207483
1	153	150	629.91847207483
1	154	151	629.91847207483
1	155	152	629.91847207483
1	156	153	629.91847207483
1	157	154	629.91847207483
1	158	155	629.91847207483
1	159	156	629.91847207483
1	160	157	629.91847207483
1	161	158	629.91847207483
1	162	159	629.91847207483
1	163	160	629.91847207483
1	164	161	629.91847207483
1	165	162	629.91847207483
1	166	163	629.91847207483
1	167	164	629.91847207483
1	168	165	629.91847207483
1	169	166	629.91847207483
1	170	167	629.91847207483
1	171	168	629.91847207483
1	172	169	629.91847207483
1	173	170	629.91847207483
1	174	171	629.91847207483
1	175	172	629.91847207483
1	176	173	629.91847207483
1	177	174	629.91847207483
1	178	175	629.91847207483
1	179	176	629.91847207483
1	180	177	629.91847207483
1	181	178	629.91847207483
1	182	179	629.91847207483
1	183	180	629.91847207483
1	184	181	627.1979678281
1	185	182	626.53667649931
1	186	183	625.52556128928
1	187	184	624.12406951706
1	188	185	622.38246832805
1	189	186	620.58960533024
1	190	187	618.8008955929
1	191	188	617.01130593357
1	192	189	615.22236260282
1	193	190	613.43204780981
1	194	191	611.64128797667
1	195	192	609.85344651423
1	196	193	608.06354463425
1	197	194	606.24771229336
1	198	195	604.4031516355
1	199	196	600.78502098529
1	200	197	598.98083504523
1	201	198	597.17445180528
1	202	199	585.3969535755
1	203	200	577.48318294388
2	2	1	3826.1659546153
2	3	2	3826.5177905254
2	4	3	3827.131914143
2	5	4	3831.3931570302
2	6	5	3833.1717219218
2	7	6	3834.9797167084
2	8	7	3836.7876554069
2	9	8	3838.5978238449
2	10	9	3840.4117652698
2	11	10	3846.2545424317
2	12	11	3848.0841740582
2	13	12	3849.9105655037
2	14	13	3851.7419299664
2	15	14	3853.568278166
2	16	15	3854.875432658
2	17	16	3857.9308516923
2	18	17	3858.5666222065
2	19	18	3859.203988172
2	20	19	3859.8408992893
2	21	20	3860.4775539587
2	22	21	3861.1139511618
2	23	22	3861.7509473149
2	24	23	3862.3891824284
2	25	24	3863.6049900392
2	26	25	3864.29431193
2	27	26	3864.9880897044
2	28	27	3865.6800938032
2	29	28	3866.3716847618
2	30	29	3867.066307873
2	31	30	3867.7598015576
2	32	31	3868.4516029438
2	33	32	3869.1454263567
2	34	33	3869.8390471835
2	35	34	3870.5336601895
2	36	35	3871.1135418317
2	37	36	3873.1687561686
2	38	37	3873.8704227386
2	39	38	3874.5706994511
2	40	39	3875.270849943
2	41	40	3875.9708521357
2	42	41	3876.6690158391
2	43	42	3877.3699157971
2	44	43	3878.0719988633
2	45	44	3878.7708900371
2	46	45	3879.472214292
2	47	46	3880.1716656018
2	48	47	3880.7648792688
2	49	48	3881.144560216
2	50	49	3881.3568446446
2	51	50	3881.4584465377
2	52	51	3881.5304580149
2	53	52	3881.6997336964
2	54	53	3881.9998943296
2	55	54	3864.8897441852
2	56	55	3861.7155801062
2	57	56	3858.0592810564
2	58	57	3854.3914687378
2	59	58	3850.7344217515
2	60	59	3847.075297859
2	61	60	3843.4049096491
2	62	61	3839.7359097881
2	63	62	3836.0687805858
2	64	63	3832.411324174
2	65	64	3828.7420599246
2	66	65	3820.2275122822
2	67	66	3816.8757991585
2	68	67	3813.5189927958
2	69	68	3810.1644671726
2	70	69	3806.8114696032
2	71	70	3803.4634619194
2	72	71	3800.1889918309
2	73	72	3798.0318717492
2	74	73	3787.6243599399
2	76	74	3780.0443425052
2	77	75	3772.4458762676
2	78	76	3765.6710938938
2	79	77	3764.1619561038
2	80	78	3762.6496074624
2	81	79	3761.8621978953
2	82	80	3761.6352281727
2	83	81	3761.4083086191
2	84	82	3761.1812528499
2	85	83	3760.953950457
2	86	84	3760.7263408239
2	87	85	3760.4985986691
2	88	86	3760.2709240311
2	89	87	3760.0502136278
2	90	88	3759.925302478
2	91	89	3759.9053288935
2	92	90	3759.9053288935
2	93	91	3760.1844908114
2	94	92	3760.1144642475
2	95	93	3760.0391152728
2	96	94	3759.9594012924
2	97	95	3759.864890008
2	98	96	3759.7693654685
2	99	97	3759.6742336853
2	100	98	3759.5789051204
2	101	99	3759.4835064962
2	102	100	3759.3692697936
2	103	101	3758.4903458846
2	104	102	3758.0026963804
2	105	103	3757.5134540634
2	106	104	3757.0256627059
2	107	105	3756.5374813903
2	108	106	3756.0502473248
2	109	107	3755.5618866174
2	110	108	3755.0743659758
2	111	109	3754.5868248394
2	112	110	3754.0992721704
2	113	111	3753.6122660658
2	114	112	3753.1676489856
2	115	113	3752.9517934238
2	116	114	3752.9361860363
2	117	115	3752.9361860363
2	118	116	3752.9361860363
2	119	117	3752.9361860363
2	120	118	3752.9361860363
2	121	119	3752.9361860363
2	122	120	3752.9361860363
2	123	121	3752.9361860363
2	124	122	3752.9361860363
2	125	123	3752.9361860363
2	127	124	3752.9361860363
2	128	125	3752.9361860363
2	129	126	3752.9361860363
2	130	127	3752.9361860363
2	131	128	3752.9361860363
2	132	129	3752.9361860363
2	133	130	3752.9361860363
2	134	131	3752.9361860363
2	135	132	3752.9361860363
2	136	133	3752.9361860363
2	137	134	3752.9361860363
2	138	135	3752.9361860363
2	139	136	3747.205218421
2	140	137	3743.942495433
2	141	138	3738.8368721675
2	142	139	3732.1459829175
2	143	140	3724.1133188424
2	144	141	3716.0062267409
2	145	142	3707.8848466531
2	146	143	3699.7462652788
2	147	144	3691.6175235292
2	148	145	3683.5029870474
2	149	146	3675.3780139776
2	150	147	3667.2562578044
2	151	148	3659.118178776
2	152	149	3651.0005737003
2	153	150	3642.8888445466
2	154	151	3634.7462712759
2	155	152	3626.6178035506
2	156	153	3618.4795944558
2	157	154	3610.3621876397
2	158	155	3602.239728954
2	159	156	3594.1172327826
2	160	157	3585.9791418264
2	161	158	3577.8437217501
2	162	159	3569.7145277073
2	163	160	3561.5822675544
2	164	161	3553.6596102032
2	165	162	3548.9648881799
2	166	163	3548.1587496578
2	167	164	3548.1587496578
2	168	165	3548.1587496578
2	169	166	3548.1587496578
2	170	167	3548.1587496578
2	171	168	3548.1587496578
2	172	169	3548.1587496578
2	173	170	3548.1587496578
2	174	171	3548.1587496578
2	175	172	3548.1587496578
2	176	173	3548.1587496578
2	177	174	3548.1587496578
2	178	175	3548.1587496578
2	179	176	3548.1587496578
2	180	177	3548.1587496578
2	181	178	3548.1587496578
2	182	179	3548.1587496578
2	183	180	3548.1587496578
2	184	181	3532.2295623392
2	185	182	3529.6923403682
2	186	183	3525.7906229383
2	187	184	3521.6300929041
2	188	185	3517.471519109
2	189	186	3513.3130419496
2	190	187	3509.1657934175
2	191	188	3505.0133525569
2	192	189	3500.8654151364
2	193	190	3496.7135959833
2	194	191	3492.5519415089
2	195	192	3488.3986160278
2	196	193	3484.2647965761
2	197	194	3465.0518774643
2	198	195	3460.4245444834
2	199	196	3455.8062082388
2	200	197	3451.2038376865
2	201	198	3446.6002338282
2	202	199	3441.9831383209
2	203	200	3437.3778499598
3	2	1	1124.3477475012
3	3	2	1123.2776666859
3	4	3	1121.4098587602
3	5	4	1107.7866716961
3	6	5	1101.7622712549
3	7	6	1095.6381851214
3	8	7	1089.5142889709
3	9	8	1083.3828401901
3	10	9	1077.2386114512
3	11	10	1057.0979268022
3	12	11	1050.6851385546
3	13	12	1044.2837070164
3	14	13	1037.8648452446
3	15	14	1031.4635652815
3	16	15	1025.6456500267
3	17	16	1011.4674275791
3	18	17	1004.4555770515
3	19	18	997.42613044982
3	20	19	990.40170032389
3	21	20	983.38009853685
3	22	21	976.36133631959
3	23	22	969.33596834201
3	24	23	962.29693599236
3	25	24	936.36611554473
3	26	25	929.24161857553
3	27	26	922.11800749986
3	28	27	915.01260827108
3	29	28	907.91145110636
3	30	29	900.77916023216
3	31	30	893.65846614972
3	32	31	886.55514834461
3	33	32	879.43527314043
3	34	33	872.3195394822
3	35	34	865.19362723279
3	36	35	859.24472379708
3	37	36	837.80100742996
3	38	37	830.45604591549
3	39	38	823.12563326151
3	40	39	815.79654187127
3	41	40	808.469002858
3	42	41	801.16070893092
3	43	42	793.82377221844
3	44	43	786.47445087051
3	45	44	779.15854187111
3	46	45	771.8171636693
3	47	46	764.49539123218
3	48	47	758.28570170168
3	49	48	754.31124707542
3	50	49	752.0890791327
3	51	50	751.02552269947
3	52	51	750.27171519091
3	53	52	748.49975765579
3	54	53	745.25632087963
3	55	54	723.04201378516
3	56	55	718.18238957054
3	57	56	712.5699377077
3	58	57	706.93981287407
3	59	58	701.32621292194
3	60	59	695.7094249003
3	61	60	690.07534605023
3	62	61	684.44339832817
3	63	62	678.81432208408
3	64	63	673.20009366032
3	65	64	667.56774009965
3	66	65	653.98278388616
3	67	66	648.16686747473
3	68	67	642.34211323885
3	69	68	636.52131655842
3	70	69	630.70317136764
3	71	70	624.89368466198
3	72	71	619.05726195548
3	73	72	613.93102601993
3	74	73	600.20800971463
3	76	74	598.51232597858
3	77	75	596.81251516298
3	78	76	584.30265518212
3	79	77	576.87701128345
3	80	78	569.43556853645
3	81	79	561.92646988669
3	82	80	554.354667773
3	83	81	546.78453931169
3	84	82	539.20986664605
3	85	83	531.62696651491
3	86	84	524.03381672557
3	87	85	516.43624595676
3	88	86	508.84092757417
3	89	87	501.47793889176
3	90	88	497.19617138241
3	91	89	496.50565603212
3	92	90	496.50565603212
3	93	91	484.92876467872
3	94	92	482.10951159215
3	95	93	477.73966340722
3	96	94	471.6753619592
3	97	95	464.48534439966
3	98	96	457.21824268991
3	99	97	449.98102020925
3	100	98	442.72882741865
3	101	99	435.47130481088
3	102	100	428.20495009182
3	103	101	408.95488623314
3	104	102	401.22146289749
3	105	103	393.46277983109
3	106	104	385.72710690557
3	107	105	377.98524980214
3	108	106	370.25841473022
3	109	107	362.51371273002
3	110	108	354.78233297079
3	111	109	347.05062819419
3	112	110	339.31874052615
3	113	111	331.59552058793
3	114	112	324.54452992006
3	115	113	321.12136958737
3	116	114	320.87385875538
3	117	115	320.87385875538
3	118	116	320.87385875538
3	119	117	320.87385875538
3	120	118	320.87385875538
3	121	119	320.87385875538
3	122	120	320.87385875538
3	123	121	320.87385875538
3	124	122	320.87385875538
3	125	123	320.87385875538
3	127	124	320.87385875538
3	128	125	320.87385875538
3	129	126	320.87385875538
3	130	127	320.87385875538
3	131	128	320.87385875538
3	132	129	320.87385875538
3	133	130	320.87385875538
3	134	131	320.87385875538
3	135	132	320.87385875538
3	136	133	320.87385875538
3	137	134	320.87385875538
3	138	135	320.87385875538
3	139	136	314.16394081747
3	140	137	314.03431212579
3	141	138	313.82579417861
3	142	139	313.55253263567
3	143	140	313.22447188065
3	144	141	312.89337142245
3	145	142	312.56168743088
3	146	143	312.2293009243
3	147	144	311.89731627627
3	148	145	311.56591178332
3	149	146	311.23408105134
3	150	147	310.90238170012
3	151	148	310.57001570977
3	152	149	310.23848589286
3	153	150	309.90719605355
3	154	151	309.57464651457
3	155	152	309.24267305792
3	156	153	308.91030175555
3	157	154	308.57878003573
3	158	155	308.24705199332
3	159	156	307.91532241995
3	160	157	307.58295594246
3	161	158	307.25069854595
3	162	159	306.91869542588
3	163	160	306.5865670833
3	164	161	306.26299909538
3	165	162	306.07126270044
3	166	163	306.03833932537
3	167	164	306.03833932537
3	168	165	306.03833932537
3	169	166	306.03833932537
3	170	167	306.03833932537
3	171	168	306.03833932537
3	172	169	306.03833932537
3	173	170	306.03833932537
3	174	171	306.03833932537
3	175	172	306.03833932537
3	176	173	306.03833932537
3	177	174	306.03833932537
3	178	175	306.03833932537
3	179	176	306.03833932537
3	180	177	306.03833932537
3	181	178	306.03833932537
3	182	179	306.03833932537
3	183	180	306.03833932537
3	184	181	307.88601381021
3	185	182	308.9911260125
3	186	183	310.69055774964
3	187	184	312.5027178844
3	188	185	314.31402595981
3	189	186	316.12529194453
3	190	187	317.93166718926
3	191	188	319.74030400417
3	192	189	321.54697930108
3	193	190	323.35534532516
3	194	191	325.16799522098
3	195	192	326.97701734115
3	196	193	328.77754341668
3	197	194	337.12564429431
3	198	195	339.11497310906
3	199	196	341.10043415224
3	200	197	343.07903141196
3	201	198	345.05815888013
3	202	199	347.04308652009
3	203	200	349.02293817002
4	2	1	3521.1733005542
4	3	2	3521.560479749
4	4	3	3519.3220876527
4	5	4	3516.0969675592
4	6	5	3512.0962588238
4	7	6	3508.0222120127
4	8	7	3503.9487235623
4	9	8	3499.8866492881
4	10	9	3495.8243172598
4	11	10	3491.7525792836
4	12	11	3487.6815731624
4	13	12	3483.6118317573
4	14	13	3480.1160900522
4	15	14	3487.7111946834
4	16	15	3491.6985788154
4	17	16	3495.6752981679
4	18	17	3499.6574485111
4	19	18	3503.6411319001
4	20	19	3507.6254376095
4	21	20	3511.61263392
4	22	21	3515.5920651025
4	23	22	3519.5691619973
4	24	23	3523.5519076916
4	25	24	3527.530499693
4	26	25	3530.2457362966
4	27	26	3530.5601449219
4	28	27	3530.5601449219
4	29	28	3530.5601449219
4	30	29	3530.5601449219
4	31	30	3530.5601449219
4	32	31	3530.5601449219
4	33	32	3530.5601449219
4	34	33	3530.5601449219
4	35	34	3530.5601449219
4	36	35	3530.5601449219
4	37	36	3530.5601449219
4	38	37	3530.5601449219
4	39	38	3530.5601449219
4	40	39	3530.5601449219
4	41	40	3530.5601449219
4	42	41	3530.5601449219
4	43	42	3530.5601449219
4	44	43	3530.5601449219
4	45	44	3530.5601449219
4	46	45	3530.5601449219
4	47	46	3558.7791115484
4	48	47	3559.1105329867
4	49	48	3559.6453801275
4	50	49	3560.3732786187
4	51	50	3561.2215838863
4	52	51	3561.9749615281
4	53	52	3573.2415723308
4	54	53	3579.1997152829
4	55	54	3585.1467504165
4	56	55	3591.1008600196
4	57	56	3597.0643087687
4	58	57	3603.0315210823
4	59	58	3608.9897703393
4	60	59	3614.9184541449
4	61	60	3620.8639458495
4	62	61	3626.7919471147
4	63	62	3631.1778877337
4	64	63	3632.4784205344
4	65	64	3632.478430531
4	66	65	3632.478430531
4	67	66	3632.478430531
4	68	67	3632.478430531
4	69	68	3632.478430531
4	70	69	3632.478430531
4	71	70	3632.478430531
4	72	71	3632.478430531
4	73	72	3632.478430531
4	74	73	3632.478430531
4	76	74	3632.478430531
4	77	75	3632.478430531
4	78	76	3632.478430531
4	79	77	3632.478430531
4	80	78	3632.478430531
4	81	79	3632.478430531
4	82	80	3632.478430531
4	83	81	3632.478430531
4	84	82	3632.478430531
4	85	83	3632.478430531
4	86	84	3632.478430531
4	87	85	3632.478430531
4	88	86	3632.478430531
4	89	87	3632.478430531
4	90	88	3632.478430531
4	91	89	3632.478430531
4	92	90	3632.478430531
4	93	91	3632.478430531
4	94	92	3632.478430531
4	95	93	3632.478430531
4	96	94	3632.478430531
4	97	95	3632.478430531
4	98	96	3632.478430531
4	99	97	3632.478430531
4	100	98	3632.478430531
4	101	99	3632.478430531
4	102	100	3632.478430531
4	103	101	3632.478430531
4	104	102	3632.478430531
4	105	103	3632.478430531
4	106	104	3632.478430531
4	107	105	3632.478430531
4	108	106	3632.478430531
4	109	107	3632.478430531
4	110	108	3632.478430531
4	111	109	3632.478430531
4	112	110	3632.478430531
4	113	111	3632.478430531
4	114	112	3632.478430531
4	115	113	3632.478430531
4	116	114	3632.478430531
4	117	115	3632.478430531
4	118	116	3632.478430531
4	119	117	3632.478430531
4	120	118	3632.478430531
4	121	119	3632.478430531
4	122	120	3632.478430531
4	123	121	3672.2647328457
4	124	122	3674.424954552
4	125	123	3677.7999700236
4	127	124	3682.3909536814
4	128	125	3687.790192131
4	129	126	3693.199402178
4	130	127	3698.6237968819
4	131	128	3704.0298000301
4	132	129	3709.4517394768
4	133	130	3714.861424461
4	134	131	3730.5981389245
4	135	132	3737.6248893991
4	136	133	3744.6432627041
4	137	134	3751.6761179855
4	138	135	3758.7064068692
4	139	136	3765.740527674
4	140	137	3772.7767273712
4	141	138	3779.8000131578
4	142	139	3786.8289214946
4	143	140	3793.2517447537
4	144	141	3796.3381726116
4	145	142	3796.5486808975
4	146	143	3796.5486808975
4	147	144	3796.5486808975
4	148	145	3796.5486808975
4	149	146	3796.5486808975
4	150	147	3796.5486808975
4	151	148	3796.5486808975
4	152	149	3796.5486808975
4	153	150	3796.5486808975
4	154	151	3796.5486808975
4	155	152	3796.5486808975
4	156	153	3796.5486808975
4	157	154	3796.5486808975
4	158	155	3796.5486808975
4	159	156	3796.5486808975
4	160	157	3796.5486808975
4	161	158	3796.5486808975
4	162	159	3796.5486808975
4	163	160	3796.5486808975
4	164	161	3796.5486808975
4	165	162	3796.5486808975
4	166	163	3796.5486808975
4	167	164	3796.5486808975
4	168	165	3796.5486808975
4	169	166	3796.5486808975
4	170	167	3796.5486808975
4	171	168	3796.5486808975
4	172	169	3796.5486808975
4	173	170	3796.5486808975
4	174	171	3796.5486808975
4	175	172	3796.5486808975
4	176	173	3796.5486808975
4	177	174	3796.5486808975
4	178	175	3796.5486808975
4	179	176	3796.5486808975
4	180	177	3796.5486808975
4	181	178	3796.5486808975
4	182	179	3796.5486808975
4	183	180	3796.5486808975
4	184	181	3806.1569265577
4	185	182	3808.9619843407
4	186	183	3813.3978774496
4	187	184	3819.3267903802
4	188	185	3826.2037378469
4	189	186	3833.1308611536
4	190	187	3840.0571252741
4	191	188	3846.9628215821
4	192	189	3852.9687716936
4	193	190	3855.519622635
4	194	191	3855.5976875449
4	195	192	3855.5976875449
4	196	193	3855.5976875449
4	197	194	3855.5976875449
4	198	195	3855.5976875449
4	199	196	3855.5976875449
4	200	197	3855.5976875449
4	201	198	3855.5976875449
4	202	199	3855.5976875449
4	203	200	3855.5976875449
5	2	1	869.08457598038
5	3	2	873.20952164478
5	4	3	876.37343904103
5	5	4	880.93207449461
5	6	5	886.5869872269
5	7	6	892.34556169657
5	8	7	898.10334693587
5	9	8	903.84499849128
5	10	9	909.58701437624
5	11	10	915.34232535917
5	12	11	921.09660188146
5	13	12	926.8490907556
5	14	13	931.7848475377
5	15	14	932.14238103179
5	16	15	926.50491096403
5	17	16	920.88251904591
5	18	17	915.2524486484
5	19	18	909.62021078979
5	20	19	903.98709307784
5	21	20	898.34988855706
5	22	21	892.72366258141
5	23	22	887.10073688405
5	24	23	881.46982476316
5	25	24	876.27849005485
5	26	25	873.98808638926
5	27	26	873.72287095025
5	28	27	873.72287095025
5	29	28	873.72287095025
5	30	29	873.72287095025
5	31	30	873.72287095025
5	32	31	873.72287095025
5	33	32	873.72287095025
5	34	33	873.72287095025
5	35	34	873.72287095025
5	36	35	873.72287095025
5	37	36	873.72287095025
5	38	37	873.72287095025
5	39	38	873.72287095025
5	40	39	873.72287095025
5	41	40	873.72287095025
5	42	41	873.72287095025
5	43	42	873.72287095025
5	44	43	873.72287095025
5	45	44	873.72287095025
5	46	45	873.72287095025
5	47	46	872.39012283797
5	48	47	871.70844919773
5	49	48	870.60836587414
5	50	49	869.11121102292
5	51	50	867.3664013247
5	52	51	865.81684049325
5	53	52	860.15908534891
5	54	53	861.77979283036
5	55	54	863.39055326519
5	56	55	865.0032298272
5	57	56	866.61843590625
5	58	57	868.23466135053
5	59	58	869.84845914194
5	60	59	871.55547775914
5	61	60	873.29177179677
5	62	61	875.02295800694
5	63	62	876.30380792224
5	64	63	876.6836095366
5	65	64	876.68361245596
5	66	65	876.68361245596
5	67	66	876.68361245596
5	68	67	876.68361245596
5	69	68	876.68361245596
5	70	69	876.68361245596
5	71	70	876.68361245596
5	72	71	876.68361245596
5	73	72	876.68361245596
5	74	73	876.68361245596
5	76	74	876.68361245596
5	77	75	876.68361245596
5	78	76	876.68361245596
5	79	77	876.68361245596
5	80	78	876.68361245596
5	81	79	876.68361245596
5	82	80	876.68361245596
5	83	81	876.68361245596
5	84	82	876.68361245596
5	85	83	876.68361245596
5	86	84	876.68361245596
5	87	85	876.68361245596
5	88	86	876.68361245596
5	89	87	876.68361245596
5	90	88	876.68361245596
5	91	89	876.68361245596
5	92	90	876.68361245596
5	93	91	876.68361245596
5	94	92	876.68361245596
5	95	93	876.68361245596
5	96	94	876.68361245596
5	97	95	876.68361245596
5	98	96	876.68361245596
5	99	97	876.68361245596
5	100	98	876.68361245596
5	101	99	876.68361245596
5	102	100	876.68361245596
5	103	101	876.68361245596
5	104	102	876.68361245596
5	105	103	876.68361245596
5	106	104	876.68361245596
5	107	105	876.68361245596
5	108	106	876.68361245596
5	109	107	876.68361245596
5	110	108	876.68361245596
5	111	109	876.68361245596
5	112	110	876.68361245596
5	113	111	876.68361245596
5	114	112	876.68361245596
5	115	113	876.68361245596
5	116	114	876.68361245596
5	117	115	876.68361245596
5	118	116	876.68361245596
5	119	117	876.68361245596
5	120	118	876.68361245596
5	121	119	876.68361245596
5	122	120	876.68361245596
5	123	121	888.01315142504
5	124	122	888.67948846878
5	125	123	889.72053801723
5	127	124	891.1366623296
5	128	125	892.80209906528
5	129	126	894.47061161711
5	130	127	896.14380799341
5	131	128	897.81133135258
5	132	129	899.48377038587
5	133	130	901.15317203305
5	134	131	905.85120941477
5	135	132	907.96884528208
5	136	133	910.08395654075
5	137	134	912.20343219985
5	138	135	914.32213442949
5	139	136	916.4419914765
5	140	137	918.56247503461
5	141	138	920.67906675675
5	142	139	922.79735293409
5	143	140	924.69757551005
5	144	141	925.57412102169
5	145	142	925.63390537489
5	146	143	925.63390537489
5	147	144	925.63390537489
5	148	145	925.63390537489
5	149	146	925.63390537489
5	150	147	925.63390537489
5	151	148	925.63390537489
5	152	149	925.63390537489
5	153	150	925.63390537489
5	154	151	925.63390537489
5	155	152	925.63390537489
5	156	153	925.63390537489
5	157	154	925.63390537489
5	158	155	925.63390537489
5	159	156	925.63390537489
5	160	157	925.63390537489
5	161	158	925.63390537489
5	162	159	925.63390537489
5	163	160	925.63390537489
5	164	161	925.63390537489
5	165	162	925.63390537489
5	166	163	925.63390537489
5	167	164	925.63390537489
5	168	165	925.63390537489
5	169	166	925.63390537489
5	170	167	925.63390537489
5	171	168	925.63390537489
5	172	169	925.63390537489
5	173	170	925.63390537489
5	174	171	925.63390537489
5	175	172	925.63390537489
5	176	173	925.63390537489
5	177	174	925.63390537489
5	178	175	925.63390537489
5	179	176	925.63390537489
5	180	177	925.63390537489
5	181	178	925.63390537489
5	182	179	925.63390537489
5	183	180	925.63390537489
5	184	181	928.47726877915
5	185	182	929.39208133703
5	186	183	930.78320076943
5	187	184	932.57885171208
5	188	185	934.66162765187
5	189	186	936.75960001898
5	190	187	938.85731217001
5	191	188	940.94879508268
5	192	189	942.76777777064
5	193	190	943.54033725177
5	194	191	943.56398025865
5	195	192	943.56398025865
5	196	193	943.56398025865
5	197	194	943.56398025865
5	198	195	943.56398025865
5	199	196	943.56398025865
5	200	197	943.56398025865
5	201	198	943.56398025865
5	202	199	943.56398025865
5	203	200	943.56398025865
6	2	1	2908.6125963195
6	3	2	2907.5279641713
6	4	3	2908.5878212538
6	5	4	2906.0318568952
6	6	5	2902.7509727142
6	7	6	2898.749451917
6	8	7	2893.9659548514
6	9	8	2888.5715847425
6	10	9	2883.126718892
6	11	10	2877.9541343363
6	12	11	2874.351201773
6	13	12	2875.694232
6	14	13	2879.3736608296
6	15	14	2883.8565680805
6	16	15	2889.0742793184
6	17	16	2894.5170382709
6	18	17	2899.9588605815
6	19	18	2905.3949905819
6	20	19	2910.8365815512
6	21	20	2915.5893338865
6	22	21	2928.6226684871
6	23	22	2929.9885570672
6	24	23	2944.9324353963
6	25	24	2950.7676986353
6	26	25	2956.550016896
6	27	26	2962.3164083983
6	28	27	2968.0840366204
6	29	28	2973.8350040462
6	30	29	2985.464217449
6	31	30	2990.0546935629
6	32	31	2994.6467053067
6	33	32	3017.7618086987
6	34	33	3017.787242103
6	35	34	3017.8126292334
6	36	35	3017.8380547919
6	37	36	3017.8635159369
6	38	37	3017.8890148583
[...]
43	21	20	1.6332980330829
43	22	21	1.551203590701
43	23	22	1.4197116939987
43	24	23	1.6053803087727
43	25	24	1.514669873473
43	26	25	1.536849323507
43	27	26	1.5220775077418
43	28	27	1.5213059823305
43	29	28	1.4491966871283
43	30	29	1.7212930044909
43	31	30	1.4939369504847
43	32	31	1.5845239823922
43	33	32	1.3381120289288
43	34	33	1.6738304474613
43	35	34	1.5534969939776
43	36	35	1.4254184715947
43	37	36	1.5381821713669
43	38	37	1.5269606829286
43	39	38	1.6730542095975
43	40	39	1.4577267376814
43	41	40	1.4131373200054
43	42	41	1.6983445075439
43	43	42	0.973
43	44	43	0.973
43	45	44	0.973
43	46	45	0.973
43	47	46	0.973
43	48	47	0.973
43	49	48	0.973
43	50	49	0.973
43	51	50	0.973
43	52	51	0.973
43	53	52	0.973
43	54	53	0.973
43	55	54	0.973
43	56	55	0.973
43	57	56	0.973
43	58	57	0.973
43	59	58	0.973
43	60	59	0.973
43	61	60	0.973
43	62	61	0.973
43	63	62	0.973
43	64	63	0.973
43	65	64	0.973
43	66	65	0.973
43	67	66	0.973
43	68	67	0.973
43	69	68	0.973
43	70	69	0.973
43	71	70	0.973
43	72	71	0.973
43	73	72	0.973
43	74	73	0.973
43	76	74	0.973
43	77	75	0.973
43	78	76	0.973
43	79	77	0.973
43	80	78	0.973
43	81	79	0.973
43	82	80	0.973
43	83	81	0.973
43	84	82	0.973
43	85	83	0.973
43	86	84	0.973
43	87	85	0.973
43	88	86	0.973
43	89	87	0.973
43	90	88	0.973
43	91	89	0.973
43	92	90	0.973
43	93	91	2.4573121009563
43	94	92	3.4680670991993
43	95	93	4.424434728851
43	96	94	4.3354998611768
43	97	95	1.4660503578025
43	98	96	1.5341241015868
43	99	97	1.6454783730586
43	100	98	1.4880875820833
43	101	99	1.433217948602
43	102	100	1.6179812031385
43	103	101	1.5034456154426
43	104	102	1.5535537012558
43	105	103	1.5593599015108
43	106	104	0.973
43	107	105	3.6275822011755
43	108	106	1.7261383077308
43	109	107	1.5300226489284
43	110	108	1.4882347910652
43	111	109	1.3887533591051
43	112	110	1.4903403752763
43	113	111	1.5214456958432
43	114	112	1.7159580506483
43	115	113	1.4872051068288
43	116	114	1.5539554948382
43	117	115	1.6144742074196
43	118	116	1.3135918132102
43	119	117	1.7226005915861
43	120	118	1.3782619834153
43	121	119	1.5384721871097
43	122	120	1.513642362056
43	123	121	1.684413320431
43	124	122	1.4644371854794
43	125	123	1.6027003909102
43	127	124	0.973
43	128	125	3.4045843335504
43	129	126	1.6079113559419
43	130	127	1.6385750689812
43	131	128	1.523009308924
43	132	129	1.4061884701676
43	133	130	1.6863902615386
43	134	131	1.3813914567901
43	135	132	1.5936368215832
43	136	133	1.4991051109928
43	137	134	1.5514303240246
43	138	135	1.5558834520356
43	139	136	1.6233296166592
43	140	137	1.4149654991259
43	141	138	1.5965054634915
43	142	139	1.4427731827049
43	143	140	1.4645301021656
43	144	141	1.724644002094
43	145	142	1.3452229262857
43	146	143	1.5260051884989
43	147	144	1.5212313445389
43	148	145	1.5820055295962
43	149	146	0.973
43	150	147	0.973
43	151	148	0.973
43	152	149	0.973
43	153	150	0.973
43	154	151	0.973
43	155	152	0.973
43	156	153	0.973
43	157	154	0.973
43	158	155	0.973
43	159	156	0.973
43	160	157	0.973
43	161	158	0.973
43	162	159	0.973
43	163	160	0.973
43	164	161	0.973
43	165	162	0.973
43	166	163	0.973
43	167	164	0.973
43	168	165	0.973
43	169	166	0.973
43	170	167	0.973
43	171	168	0.973
43	172	169	0.973
43	173	170	0.973
43	174	171	0.973
43	175	172	0.973
43	176	173	0.973
43	177	174	0.973
43	178	175	0.973
43	179	176	0.973
43	180	177	0.973
43	181	178	0.973
43	182	179	0.973
43	183	180	0.973
43	184	181	2.5106421346468
43	185	182	3.1643483126137
43	186	183	4.2124479431315
43	187	184	4.7203965758305
43	188	185	1.5451409868747
43	189	186	1.6995833347647
43	190	187	1.3551109978878
43	191	188	1.7177519175308
43	192	189	1.5078820272051
43	193	190	1.5269715502696
43	194	191	1.4760420453167
43	195	192	0.973
43	196	193	2.8190057174649
43	197	194	1.5527140383839
43	198	195	1.4585836753907
43	199	196	1.5307933177059
43	200	197	1.5955492897575
43	201	198	1.5773426995187
43	202	199	1.5597344551644
43	203	200	1.4963207200812
46	4	3	2.0176896426012
46	5	4	2.0158668594644
46	6	5	0.82081007342229
46	7	6	-0.029038173947484
46	8	7	-0.024290983674582
46	9	8	0.022534339290578
46	10	9	0.0016667695995416
46	11	10	0.044981712761802
46	12	11	-0.049602095528972
46	13	12	0.042442785711028
46	14	13	-0.092067181903404
46	15	14	0.10127966924105
46	16	15	-0.070841975978109
46	17	16	-0.00058075143955705
46	18	17	0.076317763200496
46	19	18	-4.4588725450505
46	20	19	-4.2894916738945
46	21	20	-0.013060004174727
46	22	21	0
46	23	22	0
46	24	23	0
46	25	24	0
46	26	25	0
46	27	26	0
46	28	27	0
46	29	28	0
46	30	29	0
46	31	30	0
46	32	31	0
46	33	32	0
46	34	33	0
46	35	34	0
46	36	35	0
46	37	36	0
46	38	37	0
46	39	38	0
46	40	39	0
46	41	40	0
46	42	41	0
46	43	42	0
46	44	43	0
46	45	44	0
46	46	45	0
46	47	46	2.219577005047
46	48	47	1.5942596136112
46	49	48	1.7852498625661
46	50	49	1.9931961715035
46	51	50	1.0888170963216
46	52	51	0.019686966110021
46	53	52	-0.040491384710185
46	54	53	0.052765954954085
46	55	54	0.038307600568514
46	56	55	-0.023414831575938
46	57	56	0.0073362088995061
46	58	57	-1.6050814665452
46	59	58	0.98369657765841
46	60	59	0.60041560723852
46	61	60	0.045380721394904
46	62	61	0.00041375725297144
46	63	62	-0.032971551122609
46	64	63	-0.037540106778033
46	65	64	-0.024421620988287
46	66	65	0.017317418635358
46	67	66	-1.7189997912964
46	68	67	1.7669116342647
46	69	68	0.017099768859334
46	70	69	0.0002756929025054
46	71	70	-0.023048894468229
46	72	71	-0.059458191555459
46	73	72	0.059909282005391
46	74	73	-0.028434165588115
46	76	74	0.079560680994765
46	77	75	0.0030790656968023
46	78	76	-0.11189320170321
46	79	77	0.020870753307827
46	80	78	0.013830997697077
46	81	79	-0.0039579789317212
46	82	80	-0.023397977303247
46	83	81	-0.010439588141162
46	84	82	0.094917416800746
46	85	83	-0.058516143392772
46	86	84	-0.023401164854876
46	87	85	0.024608834248502
46	88	86	0.055629793403204
46	89	87	0.0048340802709568
46	90	88	-0.074220732820685
46	91	89	-4.0147800195878
46	92	90	-4.3947893469002
46	93	91	-0.27869040394943
46	94	92	0
46	95	93	0
46	96	94	0
46	97	95	0
46	98	96	0
46	99	97	0
46	100	98	0
46	101	99	0
46	102	100	0
46	103	101	0
46	104	102	0
46	105	103	0
46	106	104	0
46	107	105	0
46	108	106	0
46	109	107	0
46	110	108	0
46	111	109	0
46	112	110	0
46	113	111	0
46	114	112	0
46	115	113	0
46	116	114	0
46	117	115	0
46	118	116	0
46	119	117	0
46	120	118	0
46	121	119	0
46	122	120	0
46	123	121	0
46	124	122	0
46	125	123	0
46	127	124	0
46	128	125	0
46	129	126	0
46	130	127	0
46	131	128	0
46	132	129	0
46	133	130	0
46	134	131	0
46	135	132	0
46	136	133	0
46	137	134	0
46	138	135	0
46	139	136	2.2502256367436
46	140	137	1.8407286024608
46	141	138	2.0506713997852
46	142	139	2.0470577755268
46	143	140	0.58977354607681
46	144	141	-0.00097217933507565
46	145	142	-0.10634831818286
46	146	143	0.024978376636282
46	147	144	-0.86756126955562
46	148	145	-4.4961620055841
46	149	146	-3.3323915645717
46	150	147	0
46	151	148	0
46	152	149	0
46	153	150	0
46	154	151	0
46	155	152	0
46	156	153	0
46	157	154	0
46	158	155	0
46	159	156	0
46	160	157	0
46	161	158	0
46	162	159	0
46	163	160	0
46	164	161	0
46	165	162	0
46	166	163	0
46	167	164	0
46	168	165	0
46	169	166	0
46	170	167	0
46	171	168	0
46	172	169	0
46	173	170	0
46	174	171	0
46	175	172	0
46	176	173	0
46	177	174	0
46	178	175	0
46	179	176	0
46	180	177	0
46	181	178	0
46	182	179	0
46	183	180	0
46	184	181	2.292356377803
46	185	182	1.9972951602622
46	186	183	2.0850890626083
46	187	184	1.9188124837587
46	188	185	0.41152829666501
46	189	186	-0.0015841984795397
46	190	187	0.053922988674604
46	191	188	0.011294121756217
46	192	189	0.012014251872898
46	193	190	-0.02039673007792
46	194	191	0.010074527896942
46	195	192	-0.11904509059852
46	196	193	0.071780734464992
46	197	194	-0.029306766737719
46	198	195	0.059678939804435
46	199	196	0.0051939328783188
46	200	197	-0.048759037535637
46	201	198	-0.054182951366528
46	202	199	0.064333434074651
46	203	200	-0.068045803755522
47	4	3	4.2836001880715
47	5	4	5.3844729741967
47	6	5	3.3218292431224
47	7	6	1.53023196247
47	8	7	1.5386575272589
47	9	8	1.638351969963
47	10	9	1.5946756783818
47	11	10	1.6892012863937
47	12	11	1.4867982050772
47	13	12	1.6832740502383
47	14	13	1.3953827912432
47	15	14	1.808173111515
47	16	15	1.4412395725412
47	17	16	1.5882738488019
47	18	17	1.7559256600414
47	19	18	0.973
47	20	19	0.973
47	21	20	0.973
47	22	21	0.973
47	23	22	0.973
47	24	23	0.973
47	25	24	0.973
47	26	25	0.973
47	27	26	0.973
47	28	27	0.973
47	29	28	0.973
47	30	29	0.973
47	31	30	0.973
47	32	31	0.973
47	33	32	0.973
47	34	33	0.973
47	35	34	0.973
47	36	35	0.973
47	37	36	0.973
47	38	37	0.973
47	39	38	0.973
47	40	39	0.973
47	41	40	0.973
47	42	41	0.973
47	43	42	0.973
47	44	43	0.973
47	45	44	0.973
47	46	45	0.973
47	47	46	2.4053743604516
47	48	47	2.7644432786322
47	49	48	3.8052953805786
47	50	49	5.1637114176843
47	51	50	3.8671757085996
47	52	51	1.6318556192162
47	53	52	1.503264516329
47	54	53	1.7022247100773
47	55	54	1.6748755079356
47	56	55	1.543204915382
47	57	56	1.6084096672992
47	58	57	0.973
47	59	58	3.4743326429771
47	60	59	2.8524751642606
47	61	60	1.6904634257554
47	62	61	1.5955630024104
47	63	62	1.5230532129265
47	64	63	1.5111841562234
47	65	64	1.5371128334558
47	66	65	1.625545585373
47	67	66	0.973
47	68	67	5.3102605726145
47	69	68	1.6298626617669
47	70	69	1.5944141469668
47	71	70	1.5437694930069
47	72	71	1.4639509938026
47	73	72	1.7182402768681
47	74	73	1.5306995053159
47	76	74	1.7640943157026
47	77	75	1.6025452262344
47	78	76	1.3545427676053
47	79	77	1.6334164850032
47	80	78	1.6196790780468
47	81	79	1.5821012989699
47	82	80	1.5398636056518
47	83	81	1.5662601091835
47	84	82	1.7950049643738
47	85	83	1.467873558441
47	86	84	1.5400194369518
47	87	85	1.642268666261
47	88	86	1.7119297224168
47	89	87	1.6050622913355
47	90	88	1.4342988738099
47	91	89	0.973
47	92	90	0.973
47	93	91	0.973
47	94	92	0.973
47	95	93	0.973
47	96	94	0.973
47	97	95	0.973
47	98	96	0.973
47	99	97	0.973
47	100	98	0.973
47	101	99	0.973
47	102	100	0.973
47	103	101	0.973
47	104	102	0.973
47	105	103	0.973
47	106	104	0.973
47	107	105	0.973
47	108	106	0.973
47	109	107	0.973
47	110	108	0.973
47	111	109	0.973
47	112	110	0.973
47	113	111	0.973
47	114	112	0.973
47	115	113	0.973
47	116	114	0.973
47	117	115	0.973
47	118	116	0.973
47	119	117	0.973
47	120	118	0.973
47	121	119	0.973
47	122	120	0.973
47	123	121	0.973
47	124	122	0.973
47	125	123	0.973
47	127	124	0.973
47	128	125	0.973
47	129	126	0.973
47	130	127	0.973
47	131	128	0.973
47	132	129	0.973
47	133	130	0.973
47	134	131	0.973
47	135	132	0.973
47	136	133	0.973
47	137	134	0.973
47	138	135	0.973
47	139	136	2.4399106698158
47	140	137	3.1284835205584
47	141	138	4.4629363685049
47	142	139	5.5955588975692
47	143	140	2.8436948771788
47	144	141	1.5938409889957
47	145	142	1.3662831959996
47	146	143	1.6425996633649
47	147	144	0.973
47	148	145	0.973
47	149	146	0.973
47	150	147	0.973
47	151	148	0.973
47	152	149	0.973
47	153	150	0.973
47	154	151	0.973
47	155	152	0.973
47	156	153	0.973
47	157	154	0.973
47	158	155	0.973
47	159	156	0.973
47	160	157	0.973
47	161	158	0.973
47	162	159	0.973
47	163	160	0.973
47	164	161	0.973
47	165	162	0.973
47	166	163	0.973
47	167	164	0.973
47	168	165	0.973
47	169	166	0.973
47	170	167	0.973
47	171	168	0.973
47	172	169	0.973
47	173	170	0.973
47	174	171	0.973
47	175	172	0.973
47	176	173	0.973
47	177	174	0.973
47	178	175	0.973
47	179	176	0.973
47	180	177	0.973
47	181	178	0.973
47	182	179	0.973
47	183	180	0.973
47	184	181	2.4881264375918
47	185	182	3.3890404188932
47	186	183	4.6447968121082
47	187	184	5.3979983944283
47	188	185	2.4542268896135
47	189	186	1.5874389376048
47	190	187	1.7083086891038
47	191	188	1.6191547622517
47	192	189	1.6215473027445
47	193	190	1.5516421297381
47	194	191	1.616699238935
47	195	192	1.3389524581649
47	196	193	1.7430258715109
47	197	194	1.5286892004906
47	198	195	1.7201292570675
47	199	196	1.6055552717312
47	200	197	1.4888586622263
47	201	198	1.4744349811135
47	202	199	1.7271115051667
47	203	200	1.445321266697
48	4	3	2.0154717034916
48	5	4	1.9475152100227
48	6	5	1.8851426046086
48	7	6	0.67251351672937
48	8	7	-0.025582178356126
48	9	8	-0.0088604955980554
48	10	9	0.12266073954292
48	11	10	-2.5369484738311
48	12	11	-0.27620232590688
48	13	12	2.1269844232313
48	14	13	0.63875073808496
48	15	14	0.029650927362963
48	16	15	-0.023361685385462
48	17	16	0.037471536325757
48	18	17	0.0050468255439764
48	19	18	-0.12027351293247
48	20	19	0.080975868985989
48	21	20	-0.039547841793393
48	22	21	0.067851535845548
48	23	22	-0.07469820063794
48	24	23	0.0095023946301076
48	25	24	-0.012238721449394
48	26	25	0.065670879143291
48	27	26	-0.020081566695589
48	28	27	-4.3407125897476
48	29	28	2.1104964653333
48	30	29	1.7353523209156
48	31	30	0.44590862440447
48	32	31	0.095406527137383
48	33	32	-0.12814664417179
48	34	33	0.095438238419593
48	35	34	-0.072158111538739
48	36	35	0.093468022991438
48	37	36	-0.06411462479271
48	38	37	-0.001305966093204
48	39	38	-0.4551019804682
48	40	39	-4.442157853353
48	41	40	-4.4728726914884
48	42	41	-1.1140668274442
48	43	42	0
48	44	43	0
48	45	44	0
48	46	45	0
48	47	46	0
48	48	47	0
48	49	48	0
48	50	49	0
48	51	50	0
48	52	51	2.214795418879
48	53	52	1.879805845328
48	54	53	1.9548546766047
48	55	54	1.8664719694084
48	56	55	1.9365138609381
48	57	56	0.64051447061179
48	58	57	-0.046411332739517
48	59	58	0.098065409597476
48	60	59	-0.094618674011436
48	61	60	0.066688413205556
48	62	61	-0.019445950025693
48	63	62	0.028862259937451
48	64	63	0.0040572108817276
48	65	64	-0.0089930883748455
48	66	65	-0.044406498910393
48	67	66	-0.01708342039492
48	68	67	-2.1731708655862
48	69	68	-0.91243725146767
48	70	69	2.1517762248078
48	71	70	0.99044316212846
48	72	71	0.019728892897257
48	73	72	-0.078327318714001
48	74	73	0.089085027480031
48	76	74	-0.079162041267844
48	77	75	0.021975503657012
48	78	76	-0.02908919090638
48	79	77	0.089341787092854
48	80	78	-0.03364318293985
48	81	79	-0.061735836472364
48	82	80	0.064356773383917
48	83	81	-0.034173732355704
48	84	82	0.043055078084581
48	85	83	-0.066138768838719
48	86	84	-0.013373485894407
48	87	85	-0.49763465143068
48	88	86	-4.4302844039556
48	89	87	-4.4443115119163
48	90	88	-1.0759507787217
48	91	89	0
48	92	90	0
48	93	91	0
48	94	92	0
48	95	93	0
48	96	94	0
48	97	95	0
48	98	96	0
48	99	97	0
48	100	98	0
48	101	99	0
48	102	100	0
48	103	101	0
48	104	102	0
48	105	103	0
48	106	104	0
48	107	105	0
48	108	106	0
48	109	107	0
48	110	108	0
48	111	109	0
48	112	110	0
48	113	111	0
48	114	112	0
48	115	113	0
48	116	114	0
48	117	115	0
48	118	116	0
48	119	117	0
48	120	118	0
48	121	119	0
48	122	120	0
48	123	121	2.2814648282292
48	124	122	1.7203375296957
48	125	123	2.050418783254
48	127	124	1.8515078271786
48	128	125	2.0104489946295
48	129	126	0.57007836137632
48	130	127	0.0035151773388495
48	131	128	0.042061236165464
48	132	129	-0.0086926054791547
48	133	130	0.023646065592766
48	134	131	-0.053293377081864
48	135	132	-0.05504091576673
48	136	133	0.097247479509097
48	137	134	0.020816146899014
48	138	135	-0.03951457867166
48	139	136	0.041610959924292
48	140	137	-0.042824908653273
48	141	138	0.0036599227716216
48	142	139	-0.069272434527521
48	143	140	0.047085787106772
48	144	141	0.042302192349453
48	145	142	-0.10116805668688
48	146	143	0.028622921123169
48	147	144	0.054511820969637
48	148	145	0.0095193170360304
48	149	146	-0.077413151208312
48	150	147	-0.0066023883619355
48	151	148	0.052979586473667
48	152	149	-0.0017738524591557
48	153	150	0.012669602420647
48	154	151	-0.020106394100003
48	155	152	-0.046771578285844
48	156	153	-0.030402930722818
48	157	154	-4.4081750791003
48	158	155	-4.5
48	159	156	-1.5034522889383
48	160	157	0
48	161	158	0
48	162	159	0
48	163	160	0
48	164	161	0
48	165	162	0
48	166	163	0
48	167	164	0
48	168	165	0
48	169	166	0
48	170	167	0
48	171	168	0
48	172	169	0
48	173	170	0
48	174	171	0
48	175	172	0
48	176	173	0
48	177	174	0
48	178	175	0
48	179	176	0
48	180	177	0
48	181	178	0
48	182	179	0
48	183	180	0
48	184	181	0
48	185	182	0
48	186	183	0
48	187	184	0
48	188	185	0
48	189	186	0
48	190	187	0
48	191	188	0
48	192	189	0
48	193	190	0
48	194	191	0
48	195	192	0
48	196	193	0
48	197	194	0
48	198	195	0
48	199	196	0
48	200	197	0
48	201	198	0
48	202	199	0
48	203	200	0
49	4	3	4.3134382139974
49	5	4	5.2499406358385
49	6	5	6.1195318506319
49	7	6	3.4175016439044
49	8	7	1.6545371610587
49	9	8	1.6959424688036
49	10	9	2.0399317081112
49	11	10	0.973
49	12	11	0.973
49	13	12	6.734256171829
49	14	13	3.3418202508108
49	15	14	1.8017832110975
49	16	15	1.6654332613895
49	17	16	1.8228882790159
49	18	17	1.740833808964
49	19	18	1.4159881370325
49	20	19	1.9301507406689
49	21	20	1.6219006723596
49	22	21	1.8995806599284
49	23	22	1.5327190728333
49	24	23	1.745983887882
49	25	24	1.6901399403043
49	26	25	1.8929222483487
49	27	26	1.6737216183474
49	28	27	0.973
49	29	28	5.7758264423972
49	30	29	5.8767158934571
49	31	30	2.84543024558
49	32	31	1.9711080745736
49	33	32	1.3959819249783
49	34	33	1.9678507153123
49	35	34	1.5381771300625
49	36	35	1.9650156071426
49	37	36	1.560300521911
49	38	37	1.7189160517844
49	39	38	0.973
49	40	39	0.973
49	41	40	0.973
49	42	41	0.973
49	43	42	0.973
49	44	43	0.973
49	45	44	0.973
49	46	45	0.973
49	47	46	0.973
49	48	47	0.973
49	49	48	0.973
49	50	49	0.973
49	51	50	0.973
49	52	51	2.4000271789377
49	53	52	3.1688556411345
49	54	53	4.2722966329026
49	55	54	5.0984274705763
49	56	55	6.2717643402196
49	57	56	3.3426398024775
49	58	57	1.6024104692883
49	59	58	1.9761897683603
49	60	59	1.4812347835551
49	61	60	1.8937983146907
49	62	61	1.6740471723809
49	63	62	1.7987357997424
49	64	63	1.7361349358136
49	65	64	1.7023258591416
49	66	65	1.6095081514489
49	67	66	1.6772235432385
49	68	67	0.973
49	69	68	0.973
49	70	69	6.5892688645007
49	71	70	4.2349466343658
49	72	71	1.7763965022649
49	73	72	1.5227225237037
49	74	73	1.9535853193636
49	76	74	1.5212091812656
49	77	75	1.7781933667937
49	78	76	1.6470184556839
49	79	77	1.9545464118565
49	80	78	1.6394712942786
49	81	79	1.5643325716943
49	82	80	1.8880900229361
49	83	81	1.6359002756168
49	84	82	1.8348826644212
49	85	83	1.5536837760472
49	86	84	1.685710292452
49	87	85	0.973
49	88	86	0.973
49	89	87	0.973
49	90	88	0.973
49	91	89	0.973
49	92	90	0.973
49	93	91	0.973
49	94	92	0.973
49	95	93	0.973
49	96	94	0.973
49	97	95	0.973
49	98	96	0.973
49	99	97	0.973
49	100	98	0.973
49	101	99	0.973
49	102	100	0.973
49	103	101	0.973
49	104	102	0.973
49	105	103	0.973
49	106	104	0.973
49	107	105	0.973
49	108	106	0.973
49	109	107	0.973
49	110	108	0.973
49	111	109	0.973
49	112	110	0.973
49	113	111	0.973
49	114	112	0.973
49	115	113	0.973
49	116	114	0.973
49	117	115	0.973
49	118	116	0.973
49	119	117	0.973
49	120	118	0.973
49	121	119	0.973
49	122	120	0.973
49	123	121	2.4755795867525
49	124	122	2.9681198283045
49	125	123	4.4131492256681
49	127	124	5.0636364708631
49	128	125	6.481880473228
49	129	126	3.162640597155
49	130	127	1.7313817965791
49	131	128	1.8325517087223
49	132	129	1.7030861995318
49	133	130	1.7870864359575
49	134	131	1.5880403671387
49	135	132	1.5800265193196
49	136	133	1.9729932764026
49	137	134	1.7807130253546
49	138	135	1.6245082502847
49	139	136	1.8337943926731
49	140	137	1.6160362675673
49	141	138	1.7341125293533
49	142	139	1.5449556619838
49	143	140	1.8421835027602
49	144	141	1.8338525615123
49	145	142	1.4640051235915
49	146	143	1.7928962102855
49	147	144	1.8631987223366
49	148	145	1.7499066867617
49	149	146	1.5246643755131
49	150	147	1.7025179039018
49	151	148	1.8573429777053
49	152	149	1.7186766449196
49	153	150	1.7562498822794
49	154	151	1.6717531491211
49	155	152	1.6012001316281
49	156	153	1.6402324014981
49	157	154	0.973
49	158	155	0.973
49	159	156	0.973
49	160	157	0.973
49	161	158	0.973
49	162	159	0.973
49	163	160	0.973
49	164	161	0.973
49	165	162	0.973
49	166	163	0.973
49	167	164	0.973
49	168	165	0.973
49	169	166	0.973
49	170	167	0.973
49	171	168	0.973
49	172	169	0.973
49	173	170	0.973
49	174	171	0.973
49	175	172	0.973
49	176	173	0.973
49	177	174	0.973
49	178	175	0.973
49	179	176	0.973
49	180	177	0.973
49	181	178	0.973
49	182	179	0.973
49	183	180	0.973
49	184	181	0.973
49	185	182	0.973
49	186	183	0.973
49	187	184	0.973
49	188	185	0.973
49	189	186	0.973
49	190	187	0.973
49	191	188	0.973
49	192	189	0.973
49	193	190	0.973
49	194	191	0.973
49	195	192	0.973
49	196	193	0.973
49	197	194	0.973
49	198	195	0.973
49	199	196	0.973
49	200	197	0.973
49	201	198	0.973
49	202	199	0.973
49	203	200	0.973

